src/case1888rte_solved.m
function mpc = case1888rte_solved
%CASE1888RTE_SOLVED

%% MATPOWER Case Format : Version 2
mpc.version = '2';

%%-----  Power Flow Data  -----%%
%% system MVA base
mpc.baseMVA = 100;

%% bus data
%	bus_i	type	Pd	Qd	Gs	Bs	area	Vm	Va	baseKV	zone	Vmax	Vmin	lam_P	lam_Q	mu_Vmax	mu_Vmin
mpc.bus = [
	1	1	5.8	-5.8	0	0	1	1.03582867	-20.70626	225	1	1.08889	0.888889	1.0132	-0.0078	0.0000	0.0000;
	2	1	0	0	0	0	1	1.05582081	-0.558478142	380	1	1.10263	1.04841	1.0070	-0.0039	0.0000	0.0000;
	3	1	142.5	-13.4	0	0	1	1.04728543	1.80565265	225	1	1.08444	1.00444	1.1233	-0.1157	0.0000	0.0000;
	4	1	0	0	0	0	1	1.0530298	-13.3352764	150	1	1.10667	0.9	1.0043	0.0022	0.0000	0.0000;
	5	1	32.8	-5.3	0	0	1	1.06288429	-14.2337546	225	1	1.08889	0.933333	1.0048	0.0033	0.0000	0.0000;
	6	1	40.2	4	0	0	1	1.06052355	-14.7835669	225	1	1.08889	0.933333	1.0059	0.0029	0.0000	0.0000;
	7	1	0	0	0	0	1	1.04278615	-12.4804088	380	1	1.10526	1.03947	1.0108	-0.0034	0.0000	0.0000;
	8	1	0	0	0	0	1	1.05767987	-12.2477173	380	1	1.10526	1.03947	1.0076	0.0072	0.0000	0.0000;
	9	1	0	0	0	0	1	1.05070012	-16.4512734	225	1	1.09035	1.00444	0.9847	-0.0659	0.0000	0.0000;
	10	1	148.8	14.9	0	0	1	1.04602091	-18.7003768	225	1	1.08889	0.933333	1.0210	-0.0075	0.0000	0.0000;
	11	1	25.6	5	0	0	1	1.04407886	-18.3993219	225	1	1.08889	1.00444	1.0214	0.0199	0.0000	0.0000;
	12	1	39.1	8.7	0	0	1	1.02156722	-19.5382787	225	1	1.08889	1.00444	1.0036	-0.0183	0.0000	0.0000;
	13	1	70.5	17.2	0	0	1	1.04406351	-18.3964626	225	1	1.08889	1.00444	1.0213	0.0200	0.0000	0.0000;
	14	1	36	-4.2	0	0	1	1.03451798	-19.0279674	225	1	1.08252	0.95	1.0102	-0.0006	0.0000	0.0000;
	15	1	0	0	0	0	1	1.04763065	-10.6989763	225	1	1.08889	1.00444	1.0017	-0.0007	0.0000	0.0000;
	16	1	0	0	0	0	1	1.04763105	-10.6989791	225	1	1.08889	1.00444	1.0017	-0.0007	0.0000	0.0000;
	17	1	23.7	-12.4	0	0	1	1.03402091	-19.1886253	225	1	1.08889	0.888889	1.0111	-0.0005	0.0000	0.0000;
	18	1	5.9	-4.8	0	0	1	1.03460762	-19.0200064	225	1	1.09633	0.986667	1.0064	-0.0000	0.0000	0.0000;
	19	1	34	3.7	0	0	1	1.03528527	-19.0229457	225	1	1.08889	1.00444	1.0089	-0.0099	0.0000	0.0000;
	20	1	6.9	0.8	0	0	1	1.0353119	-19.0206444	225	1	1.08889	1.00444	1.0088	-0.0099	0.0000	0.0000;
	21	1	9.2	-29.1	0	0	1	1.04659065	-14.8281571	225	1	1.08889	1.00444	1.0108	-0.0044	0.0000	0.0000;
	22	1	67.7	-3.6	0	0	1	1.04094938	-21.6471009	225	1	1.08889	0.986667	1.0186	-0.0047	0.0000	0.0000;
	23	1	25.4	-2.7	0	0	1	1.0259789	-22.8900476	225	1	1.08889	0.888889	1.0268	-0.0009	0.0000	0.0000;
	25	1	64	4.6	0	0	1	1.06129494	-15.1773344	225	1	1.08444	1.00889	1.0527	-0.0067	0.0000	0.0000;
	27	1	71.6	46.7	0	0	1	1.01868771	-13.0713154	225	1	1.08889	0.933333	1.0164	-0.0005	0.0000	0.0000;
	28	1	105.4	6.9	0	0	1	1.04028839	-16.1140107	225	1	1.08889	1.00444	0.9807	-0.0698	0.0000	0.0000;
	29	1	0	0	0	0	1	1.05577304	-0.542303687	380	1	1.10526	1.04842	1.0069	-0.0039	0.0000	0.0000;
	30	1	0	0	0	0	1	1.05580263	-0.52276014	380	1	1.10526	1.04842	1.0068	-0.0038	0.0000	0.0000;
	31	1	21.7	0.9	0	0	1	1.04991045	-3.26718424	225	1	1.08444	1.00889	1.0129	-0.0107	0.0000	0.0000;
	33	1	68.9	2.6	0	0	1	1.04338549	-4.2618666	225	1	1.08444	1.00889	1.0139	-0.0018	0.0000	0.0000;
	34	1	50.6	12.7	0	0	1	1.04396768	-18.3139587	225	1	1.08889	1.00444	1.0205	0.0202	0.0000	0.0000;
	35	1	17	2.1	0	0	1	1.03410793	-13.8299676	150	1	1.08	0.966667	1.0278	0.0030	0.0000	0.0000;
	36	1	38.2	6.3	0	0	1	1.06196252	-14.5179589	225	1	1.09212	1	1.1909	0.0375	0.0000	0.0000;
	37	1	0	0	0	0	1	1.06881284	-11.9828605	380	1	1.10526	1.04785	1.1860	0.0379	0.0000	0.0000;
	38	1	89	9.6	0	0	1	1.03044481	-23.0326744	225	1	1.08889	0.986667	1.0342	-0.0057	0.0000	0.0000;
	2050	1	0	0	0	-64	1	1.02966312	-19.6176964	20	1	1.5	0.8	1.0092	0.0024	0.0000	0.0000;
	39	1	70.9	-2.3	0	0	1	1.03377387	-18.9913474	225	1	1.08889	0.968889	1.0102	-0.0003	0.0000	0.0000;
	40	1	136.2	-10.7	0	0	1	1.03859739	-16.216921	380	1	1.10526	1	1.0106	-0.0002	0.0000	0.0000;
	41	1	64.6	17.3	0	0	1	1.04055898	-16.9992734	225	1	1.08889	0.933333	1.0069	-0.0189	0.0000	0.0000;
	42	1	13.4	3.3	0	0	1	1.03113355	-22.5351306	225	1	1.08889	0.888889	1.0240	-0.0012	0.0000	0.0000;
	43	1	33.3	4.7	0	0	1	1.03095992	-22.5788793	225	1	1.08889	0.888889	1.0242	-0.0011	0.0000	0.0000;
	44	1	211.6	-1.3	0	0	1	1.05769203	-4.22962276	225	1	1.08496	1.00444	1.0663	-0.0251	0.0000	0.0000;
	45	1	92.1	-9.1	0	0	1	1.04920104	-15.9432241	225	1	1.08889	1.00444	1.0165	-0.0058	0.0000	0.0000;
	46	2	0	0	0	0	1	1.07117391	5.8563825	150	1	1.10843	0.9	1.0590	-0.0046	0.0000	0.0000;
	47	1	0	0	0	0	1	1.02803565	-18.7651476	225	1	1.08889	1.00444	0.9987	-0.0165	0.0000	0.0000;
	48	1	0	0	0	0	1	1.02803543	-18.7651464	225	1	1.08889	1.00444	0.9987	-0.0165	0.0000	0.0000;
	49	1	63.7	84.5	0	-80	1	1.0280342	-18.7651394	225	1	1.08889	1.00444	0.9987	-0.0165	0.0000	0.0000;
	50	1	10.4	6.6	0	0	1	1.0393878	-16.4544453	225	1	1.08889	1.00444	0.9815	-0.0700	0.0000	0.0000;
	51	1	0	0	0	0	1	1.0394045	-4.48268001	225	1	1.08889	1	1.0830	-0.0360	0.0000	0.0000;
	52	1	68.7	16.5	0	0	1	1.02343098	-23.0643568	225	1	1.08889	0.888889	1.0268	-0.0006	0.0000	0.0000;
	53	1	101.2	15.9	0	0	1	1.01688116	-20.7356813	225	1	1.08889	0.968889	1.0185	0.0038	0.0000	0.0000;
	54	1	0	0	0	0	1	1.01895474	-18.8929943	380	1	1.10526	1	1.0165	0.0030	0.0000	0.0000;
	55	1	28.9	10.6	0	0	1	1.03578898	-3.70819863	225	1	1.08444	1.00889	1.0121	-0.0009	0.0000	0.0000;
	56	1	28.2	2.1	0	0	1	1.03597715	-3.70959269	225	1	1.08444	1.00889	1.0121	-0.0010	0.0000	0.0000;
	1827	1	109.6	-12.9	0	0	1	1.04565898	-12.216703	225	1	1.08889	1.00444	1.0615	-0.0202	0.0000	0.0000;
	57	1	27.3	-10.9	0	0	1	1.05604944	-4.94518525	225	1	1.08945	0.933333	1.0151	-1.3874	0.0000	0.0000;
	58	2	0	0	0	0	1	1.06979708	5.63817386	150	1	1.10862	0.9	1.0619	-0.0047	0.0000	0.0000;
	59	1	36.8	20.3	0	0	1	1.03998032	-1.23537591	225	1	1.08444	1.00889	1.0010	0.0001	0.0000	0.0000;
	60	1	36.5	30.8	0	0	1	1.03981163	-1.23335658	225	1	1.08444	1.00889	1.0010	0.0002	0.0000	0.0000;
	61	1	0	0	0	0	1	1.04088517	-1.57195541	225	1	1.08889	0.977778	1.0020	-0.0000	0.0000	0.0000;
	62	1	8.4	-0.3	0	0	1	1.03182343	-20.6866014	225	1	1.08889	0.888889	1.0149	-0.0016	0.0000	0.0000;
	63	1	13.2	-6.3	0	0	1	1.07290005	-13.798038	225	1	1.08889	0.933333	1.0037	0.0001	0.0000	0.0000;
	64	1	13.2	3.3	0	0	1	1.02111189	-19.6756073	225	1	1.08889	1.00444	1.0042	-0.0183	0.0000	0.0000;
	65	1	22.7	2.5	0	0	1	1.05081299	-16.5012491	225	1	1.08889	1.00444	0.9852	-0.0662	0.0000	0.0000;
	66	1	11.4	-9.7	0	0	1	1.04190129	-4.76685938	225	1	1.08889	1	1.0848	-0.0374	0.0000	0.0000;
	67	1	10.2	-1.3	0	0	1	1.04496601	-16.8565188	225	1	1.08889	0.986667	0.9616	-0.1073	0.0000	0.0000;
	68	1	0	0	0	0	1	1.03331147	-22.3153977	225	1	1.08889	0.888889	1.0224	-0.0017	0.0000	0.0000;
	69	1	0	0	0	0	1	1.02793031	-22.5753417	225	1	1.08889	0.888889	1.0243	-0.0013	0.0000	0.0000;
	70	1	0	0	0	0	1	1.0358926	-20.8384404	380	1	1.10526	1.01316	1.0214	-0.0014	0.0000	0.0000;
	71	1	39.2	2.8	0	0	1	1.03616123	-19.1944747	225	1	1.08889	1.00444	1.0094	-0.0103	0.0000	0.0000;
	72	1	19.3	3.3	0	-80	1	1.03483377	-18.576541	225	1	1.08889	1.00444	1.0051	-0.0191	0.0000	0.0000;
	73	1	0	0	0	0	1	1.04208075	-3.51754387	225	1	1.08889	0.977778	1.0135	-0.0073	0.0000	0.0000;
	74	1	0	0	0	0	1	1.04208177	-3.51660439	225	1	1.08889	0.977778	1.0134	-0.0073	0.0000	0.0000;
	75	1	131.9	3.2	0	0	1	1.04114949	-3.9991194	225	1	1.08444	1.00889	1.0154	-0.0068	0.0000	0.0000;
	76	1	0	0	0	0	1	1.05338619	-0.0499116115	225	1	1.08444	1.00444	1.0779	-0.0515	0.0000	0.0000;
	77	1	0	0	0	0	1	1.04925449	4.81570454	380	1	1.10263	1.04211	1.0738	-0.0207	0.0000	0.0000;
	78	1	94.6	-1.9	0	0	1	1.05330434	-0.0989155863	225	1	1.08444	1.00444	1.0782	-0.0519	0.0000	0.0000;
	79	1	-1.7	-4.6	0	0	1	1.02206651	-19.4423429	225	1	1.08936	1.00444	1.0028	-0.0183	0.0000	0.0000;
	80	1	3.6	-7.2	0	0	1	1.02206673	-19.4464414	225	1	1.08936	1.00444	1.0029	-0.0183	0.0000	0.0000;
	81	1	35.4	10.9	0	0	1	1.03026792	-20.7586626	225	1	1.08889	0.888889	1.0162	0.0047	0.0000	0.0000;
	82	1	15.1	0.7	0	0	1	1.03031195	-21.1618004	225	1	1.08124	0.95	1.0191	-0.0010	0.0000	0.0000;
	83	1	57.4	18	0	0	1	1.03288207	-19.0515745	225	1	1.08889	0.888889	1.0100	0.0012	0.0000	0.0000;
	84	1	89.9	-5.8	0	0	1	1.05120006	-1.54306165	225	1	1.08889	1	1.1272	0.0164	0.0000	0.0000;
	85	1	0	0	0	0	1	1.03567355	-7.5819041	225	1	1.08889	1	1.0745	-0.0334	0.0000	0.0000;
	86	1	239.8	17.5	0	0	1	1.07409207	-7.56924498	380	1	1.10526	1.0507	1.0745	-0.0332	0.0000	0.0000;
	87	1	35.5	16	0	0	1	1.05729383	-7.95088312	225	1	1.08889	1	1.0523	-0.0322	0.0000	0.0000;
	88	1	76.1	23	0	0	1	1.05688701	-5.52675002	225	1	1.08889	1	1.0861	-0.0473	0.0000	0.0000;
	89	2	0	0	0	0	1	1.02064096	-9.32566077	150	1	1.1	0.9	1.0378	-0.0000	0.0000	0.0000;
	90	1	21.3	12	0	0	1	1.02078942	-18.4895165	225	1	1.08889	0.986667	1.0044	-0.0218	0.0000	0.0000;
	91	1	11.2	-5.2	0	0	1	1.03497094	-5.39014074	225	1	1.08444	1.00889	1.0051	-0.0568	0.0000	0.0000;
	92	1	0	0	0	0	1	1.04643241	-10.3496741	380	1	1.10526	1.04211	1.0028	-0.0004	0.0000	0.0000;
	93	1	0	0	0	0	1	1.0462467	-10.3346507	380	1	1.10526	1.04211	1.0028	-0.0009	0.0000	0.0000;
	96	1	11.7	1.3	0	0	1	1.05222565	-1.46682359	225	1	1.08889	1	1.1311	0.0336	0.0000	0.0000;
	97	1	6.1	1.4	0	0	1	1.0497207	-12.6793305	225	1	1.08889	1.00444	1.0087	-0.0022	0.0000	0.0000;
	98	1	31.6	2.6	0	0	1	1.05720126	2.90413441	150	1	1.1	0.9	1.0912	-0.0066	0.0000	0.0000;
	99	1	68.9	-11.7	0	0	1	1.05856625	-6.82598639	225	1	1.08889	1	1.1059	-0.0169	0.0000	0.0000;
	100	2	0.2	-0	0	0	1	1.03532408	-19.0157142	225	1	1.08294	0.95	1.0089	-0.0099	0.0000	0.0000;
	101	1	0	0	0	0	1	1.06256617	-14.3218497	225	1	1.08889	0.933333	1.0051	0.0032	0.0000	0.0000;
	102	1	0	0	0	0	1	1.05811438	-12.2067949	380	1	1.10526	1.03947	1.0074	0.0071	0.0000	0.0000;
	103	1	0	0	0	0	1	1.04247118	-12.4427793	380	1	1.10526	1.03947	1.0107	-0.0033	0.0000	0.0000;
	104	1	0	0	0	0	1	1.04431107	-18.384567	225	1	1.08889	1.00444	1.0211	0.0199	0.0000	0.0000;
	1828	1	30.1	3.8	0	0	1	1.03543287	-20.4589259	225	1	1.08889	1.00444	1.0150	-0.0053	0.0000	0.0000;
	105	1	0	0	0	0	1	1.02034154	-19.9295549	225	1	1.08889	0.986667	1.0126	0.0044	0.0000	0.0000;
	106	1	12.1	4.5	0	0	1	1.0441586	-18.3928653	225	1	1.08889	1.00444	1.0212	0.0199	0.0000	0.0000;
	107	1	106.1	-0.3	0	0	1	1.03485972	-11.5222417	225	1	1.08889	0.933333	0.9335	-0.0000	0.0000	0.0000;
	108	1	0	0	0	0	1	1.05098679	-9.66238395	380	1	1.10526	1.03947	0.9074	-0.3689	0.0000	0.0000;
	109	1	43.3	8.4	0	0	1	1.05383773	0.13010386	225	1	1.08889	1	1.1149	0.0090	0.0000	0.0000;
	110	1	33.2	-7.5	0	0	1	1.05080253	-15.4485246	225	1	1.08986	1.00444	1.0140	-0.0059	0.0000	0.0000;
	111	1	99.5	-12.4	0	0	1	1.07262903	-8.77452782	225	1	1.09612	1	1.1464	0.0231	0.0000	0.0000;
	112	1	116.4	-6.7	0	0	1	1.03556175	-19.6179766	225	1	1.08889	0.986667	1.0093	0.0003	0.0000	0.0000;
	113	1	65.7	14.7	0	0	1	1.05068012	-16.4488823	225	1	1.09036	1.00444	0.9847	-0.0659	0.0000	0.0000;
	114	1	107.2	21.2	0	0	1	1.02325131	-23.1627962	225	1	1.08889	0.924444	1.0283	-0.0006	0.0000	0.0000;
	115	1	56.9	-2.7	0	0	1	1.03929415	-16.3462752	225	1	1.09614	0.986667	0.9969	-0.0022	0.0000	0.0000;
	117	1	0	0	0	0	1	1.04430442	-15.542802	380	1	1.10526	1.03947	1.0010	-0.0035	0.0000	0.0000;
	119	1	123.6	-19.8	0	0	1	1.02032333	-4.3265791	225	1	1.08444	1.00444	1.1143	-0.0060	0.0000	0.0000;
	2051	1	0	0	0	-64	1	1.00909478	-14.4340133	20	1	1.4	0.8	1.0454	0.0002	0.0000	0.0000;
	120	1	33.3	-21.3	0	0	1	1.05962103	-14.1628697	225	1	1.08444	1.00889	1.0461	-0.0047	0.0000	0.0000;
	121	1	0	0	0	0	1	1.05634783	-11.9176843	380	1	1.10263	1.02895	1.0445	-0.0042	0.0000	0.0000;
	122	1	1.7	-4.4	0	0	1	1.03540067	-11.5386604	225	1	1.08889	0.933333	0.9335	-0.0002	0.0000	0.0000;
	123	1	140.3	17.3	0	0	1	1.02228764	-13.3030244	225	1	1.08889	0.933333	1.0179	-0.0007	0.0000	0.0000;
	124	1	33.7	-1.8	0	0	1	1.07696771	-13.6697249	63	1	1.07937	0.920635	1.1423	-0.0124	0.0000	0.0000;
	125	2	0	0	0	0	1	1.04093943	-6.80257736	225	1	1.07476	0.95	1.0082	0.0000	0.0000	0.0000;
	126	1	-1.9	-5.4	0	0	1	1.05956761	7.72487088	225	1	1.09768	1	1.1031	-0.0002	0.0000	0.0000;
	127	1	0	0	0	0	1	1.05406082	7.76304292	380	1	1.10526	1.05263	1.1030	-0.0000	0.0000	0.0000;
	128	1	0	0	0	0	1	1.05419193	7.76651113	380	1	1.10526	1.05263	1.1028	0.0000	0.0000	0.0000;
	129	1	0	0	0	0	1	1.05418133	7.77022781	380	1	1.10526	1.05263	1.1029	0.0000	0.0000	0.0000;
	130	1	0	0	0	0	1	1.054197	7.75402718	380	1	1.10526	1.05263	1.1029	0.0000	0.0000	0.0000;
	131	1	0	0	0	0	1	1.03916561	-16.2638769	225	1	1.09645	0.986667	0.9966	-0.0021	0.0000	0.0000;
	132	1	0	0	0	0	1	1.03920079	-16.2359942	225	1	1.09645	0.986667	0.9964	-0.0021	0.0000	0.0000;
	133	1	0	0	0	0	1	1.0436305	-15.4011359	380	1	1.10526	1.03947	1.0005	-0.0033	0.0000	0.0000;
	134	1	77.3	-10.6	0	0	1	1.03416355	-20.3720992	225	1	1.08889	0.968889	1.0174	-0.0014	0.0000	0.0000;
	135	1	28.1	3.8	0	0	1	1.06110113	-15.1415302	225	1	1.08444	1.00889	1.0521	-0.0063	0.0000	0.0000;
	136	1	-5.2	-9.4	0	0	1	1.05186566	-15.9822264	380	1	1.10526	1.03947	0.9963	-0.0250	0.0000	0.0000;
	137	1	106.4	8	0	0	1	1.04416431	-12.0194307	225	1	1.08889	0.933333	1.0037	-0.0173	0.0000	0.0000;
	138	1	0	0	0	0	1	1.04109929	-8.63679461	380	1	1.10526	1.03947	1.0032	-0.0193	0.0000	0.0000;
	140	1	113.7	-8.3	0	0	1	1.02997395	-3.56549051	225	1	1.08444	1.00889	0.9968	-0.0257	0.0000	0.0000;
	141	1	44.6	0.5	0	0	1	1.03290062	-3.65412799	225	1	1.08444	1.00889	0.9989	-0.0216	0.0000	0.0000;
	142	1	165.2	-11.8	0	0	1	1.03976473	2.11763163	225	1	1.08444	1.00444	1.1503	-0.2435	0.0000	0.0000;
	143	1	29.2	2.1	0	0	1	1.04684002	-12.4181732	225	1	1.08889	0.933333	1.0052	-0.0182	0.0000	0.0000;
	144	1	32.8	4.4	0	0	1	1.04681461	-12.4226624	225	1	1.08889	0.933333	1.0052	-0.0182	0.0000	0.0000;
	145	1	19	-18.1	0	0	1	1.05079298	-15.4321619	225	1	1.08952	1.00444	1.0139	-0.0059	0.0000	0.0000;
	146	1	0	0	0	0	1	1.05296886	-5.61455569	225	1	1.09478	1	1.0129	-0.9505	0.0000	0.0000;
	147	1	0	0	0	0	1	1.05296693	-5.61453377	225	1	1.09478	1	1.0129	-0.9505	0.0000	0.0000;
	148	1	37.1	5.6	0	0	1	1.05127028	-1.25235866	225	1	1.08889	1	1.1255	0.0148	0.0000	0.0000;
	149	1	20	-3.9	0	0	1	1.04971605	-12.6038141	225	1	1.08889	1.00444	1.0083	-0.0021	0.0000	0.0000;
	150	1	38.1	1.6	0	0	1	1.02434396	-5.55166462	225	1	1.08444	1.00889	1.0038	-0.0511	0.0000	0.0000;
	151	1	24.8	-1.8	0	0	1	1.05022837	-2.09919317	225	1	1.08889	1	1.1320	0.0202	0.0000	0.0000;
	152	1	0	0	0	0	1	1.04780044	-9.08926111	225	1	1.08444	1.00889	1.0139	-0.0032	0.0000	0.0000;
	153	1	0	0	0	0	1	1.04779333	-9.09300321	225	1	1.08444	1.00889	1.0140	-0.0032	0.0000	0.0000;
	154	1	0	0	0	0	1	1.04654301	-4.26458387	225	1	1.08444	1.00889	1.0120	-0.0034	0.0000	0.0000;
	155	1	0	0	0	0	1	1.04954421	-3.24814596	380	1	1.10263	1.02895	1.0123	-0.0037	0.0000	0.0000;
	156	1	155.3	26.5	0	0	1	1.03506318	-18.6019081	225	1	1.08889	0.888889	1.0077	0.0009	0.0000	0.0000;
	157	1	0	0	0	0	1	1.05955341	7.72501497	225	1	1.09766	1	1.1031	-0.0002	0.0000	0.0000;
	158	1	0	0	0	0	1	1.05414112	7.68580327	380	1	1.10526	1.05263	1.1031	-0.0000	0.0000	0.0000;
	159	1	21.5	4.4	0	0	1	1.04491366	-17.8433208	225	1	1.08889	0.986667	0.9835	-0.0665	0.0000	0.0000;
	160	1	26.2	2.1	0	0	1	1.05550719	-6.31007357	225	1	1.08889	1	1.0813	-0.0808	0.0000	0.0000;
	161	1	0	0	0	0	1	1.05285738	-10.38803	225	1	1.08444	1.00444	1.0929	-0.0102	0.0000	0.0000;
	162	1	0	0	0	0	1	1.05285738	-10.38803	225	1	1.08444	1.00444	1.0929	-0.0102	0.0000	0.0000;
	163	1	0	0	0	0	1	1.05286476	-10.3882268	225	1	1.08444	1.00444	1.0929	-0.0102	0.0000	0.0000;
	164	1	55.3	-11.4	0	0	1	1.05285634	-10.3880022	225	1	1.08444	1.00444	1.0929	-0.0102	0.0000	0.0000;
	165	1	0	0	0	0	1	1.01786395	-12.9860547	225	1	1.08889	0.933333	1.0159	0.0000	0.0000	0.0000;
	166	1	30	12.3	0	0	1	1.03463335	-16.49139	225	1	1.08889	0.986667	1.0033	-0.0196	0.0000	0.0000;
	2019	1	0	0	0	-64	1	0.964382076	-6.2094299	20	1	1.4	0.9	1.0147	-0.9338	0.0000	0.0000;
	167	1	0	0	0	0	1	1.0497338	-5.77106023	225	1	1.08941	1	1.0111	-0.8486	0.0000	0.0000;
	168	1	0	0	0	0	1	1.05811989	-2.89607896	380	1	1.10526	1.05263	1.0183	-0.3910	0.0000	0.0000;
	169	2	0	0	0	0	1	1.06614496	-14.2441936	225	1	1.1	0.9	1.0000	0.0000	0.0000	0.0000;
	170	1	17.8	2.6	0	0	1	1.03309522	-14.1929597	150	1	1.08	0.966667	1.0297	0.0031	0.0000	0.0000;
	171	1	25.3	-3.2	0	0	1	1.03567591	-18.9588754	225	1	1.08889	1.00444	1.0086	-0.0099	0.0000	0.0000;
	172	1	-3.7	-2	0	0	1	1.03602461	-18.9157795	225	1	1.08889	1.00444	1.0084	-0.0099	0.0000	0.0000;
	173	1	37.3	0.7	0	0	1	1.02465504	-20.2621622	225	1	1.08889	0.888889	1.0152	0.0022	0.0000	0.0000;
	181	1	107.9	3.9	0	0	1	1.05023084	-2.07717584	225	1	1.08889	1	1.1318	0.0203	0.0000	0.0000;
	182	1	29.5	6.8	0	0	1	1.03809026	-18.8086378	225	1	1.08889	0.986667	1.0053	0.0000	0.0000	0.0000;
	183	1	0	0	0	0	1	1.03947	-7.43794313	380	1	1.10526	1.03947	0.9984	-0.0116	0.0000	1338.1119;
	184	1	0	0	0	0	1	1.04068662	-7.07878266	380	1	1.10526	1.03947	0.9965	-0.0302	0.0000	0.0000;
	185	1	0	0	0	0	1	1.04057622	-7.08209435	380	1	1.10526	1.03947	0.9964	-0.0302	0.0000	0.0000;
	186	1	0	0	0	0	1	1.03960788	-7.42134885	380	1	1.10526	1.03947	0.9982	-0.0141	0.0000	0.0000;
	187	1	28.1	-10	0	0	1	1.03494658	-21.2295616	225	1	1.08889	0.924444	1.0175	-0.0028	0.0000	0.0000;
	188	1	-2	-1.1	0	0	1	1.03455934	-22.7785439	225	1	1.08889	0.986667	1.0320	-0.0075	0.0000	0.0000;
	189	1	65.8	19.1	0	0	1	1.04035256	-9.44591062	225	1	1.08444	1.00444	1.0745	-0.0333	0.0000	0.0000;
	190	1	-2.3	1.2	0	0	1	1.04557203	-8.67701797	380	1	1.10263	1.04211	0.9609	-0.0987	0.0000	0.0000;
	191	1	-2.3	1.4	0	0	1	1.04563144	-8.68180749	380	1	1.10263	1.04211	0.9609	-0.0989	0.0000	0.0000;
	192	1	0	0	0	0	1	1.03591312	-19.336186	225	1	1.08889	1.00444	1.0101	-0.0104	0.0000	0.0000;
	193	1	0	0	0	0	1	1.05028472	-3.9847489	225	1	1.08889	0.977778	1.0128	-0.0072	0.0000	0.0000;
	194	1	0	0	0	0	1	1.05029112	-3.98482823	225	1	1.08889	0.977778	1.0128	-0.0072	0.0000	0.0000;
	195	1	83.6	-8.6	0	0	1	1.03332988	-20.9519583	225	1	1.08889	0.968889	1.0203	-0.0015	0.0000	0.0000;
	196	1	0	0	0	0	1	1.03071447	-7.45185243	225	1	1.08889	0.933333	0.9998	-0.0000	0.0000	0.0000;
	197	1	0	0	0	0	1	1.0307611	-7.42417881	225	1	1.08889	0.933333	0.9997	-0.0000	0.0000	0.0000;
	198	1	57.5	10.2	0	0	1	1.04426012	-4.50282773	225	1	1.08444	1.00444	1.0927	-0.0667	0.0000	0.0000;
	199	1	177.4	-31.4	0	0	1	1.05439402	-2.06108421	225	1	1.08444	1.00444	1.1296	-0.0202	0.0000	0.0000;
	200	1	0	0	0	0	1	1.0398366	-4.44323382	225	1	1.08889	0.977778	1.0104	-0.0011	0.0000	0.0000;
	201	1	0	0	0	0	1	1.04442867	-5.41726632	225	1	1.08444	1.00444	1.0523	-0.3108	0.0000	0.0000;
	202	1	124.2	-3.2	0	0	1	1.03606887	-21.5144695	225	1	1.08889	0.951111	1.0167	-0.0075	0.0000	0.0000;
	203	1	35.3	1.9	0	0	1	1.03534263	-18.5405243	225	1	1.08889	1.00444	1.0049	-0.0191	0.0000	0.0000;
	204	1	51.6	-4	0	0	1	1.03535755	-22.8034863	225	1	1.08889	0.986667	1.0320	-0.0082	0.0000	0.0000;
	2086	1	0	0	0	-64	1	1.00363933	-14.9031815	20	1	1.4	0.8	1.0500	-0.0012	0.0000	0.0000;
	205	1	16.9	-1.8	0	0	1	1.05264053	-14.5072888	225	1	1.08444	1.00889	1.0501	-0.0038	0.0000	0.0000;
	206	1	0	0	0	0	1	1.05580906	-12.7034435	380	1	1.10263	1.02895	1.0480	-0.0042	0.0000	0.0000;
	207	1	38.6	-0.7	0	0	1	1.03532687	-18.6418003	225	1	1.08889	1.00444	1.0055	-0.0194	0.0000	0.0000;
	1829	2	0	0	0	0	1	1.02889934	-20.2479395	225	1	1.07859	0.95	1.0176	0.0000	0.0000	0.0000;
	208	1	0	0	0	0	1	1.02888706	-20.2504144	225	1	1.08889	0.888889	1.0176	0.0000	0.0000	0.0000;
...
];

%% generator data
%	bus	Pg	Qg	Qmax	Qmin	Vg	mBase	status	Pmax	Pmin	Pc1	Pc2	Qc1min	Qc1max	Qc2min	Qc2max	ramp_agc	ramp_10	ramp_30	ramp_q	apf	mu_Pmax	mu_Pmin	mu_Qmax	mu_Qmin
mpc.gen = [
	1268	45	-9	27	-9	1.02601851	100	1	45	44	0	0	0	0	0	0	0	0	0	0	0	0.0125	0.0000	0.0000	0.0242;
	1268	45	-9	27	-9	1.02601851	100	1	45	44	0	0	0	0	0	0	0	0	0	0	0	0.0125	0.0000	0.0000	0.0242;
	1356	22	-12	7	-12	1.05360754	100	1	22	4.4	0	0	0	0	0	0	0	0	0	0	0	0.0308	0.0000	0.0000	0.0041;
	89	25	1.29326193	13	-9	1.02064096	100	1	25	5	0	0	0	0	0	0	0	0	0	0	0	0.0378	0.0000	0.0000	0.0000;
	125	23.4	5.6022822	8	-17	1.04093943	100	1	23.4	4.68	0	0	0	0	0	0	0	0	0	0	0	0.0082	0.0000	0.0000	0.0000;
	908	20	1.9	2	1.9	1.06849402	100	1	20	4	0	0	0	0	0	0	0	0	0	0	0	0.0648	0.0000	0.0000	0.0048;
	817	0	0	1	0.9	1.039	100	0	12	2.4	0	0	0	0	0	0	0	0	0	0	0	0.0000	0.0000	0.0000	0.0000;
	817	14	0.9	1	0.9	1.07239077	100	1	14	2.8	0	0	0	0	0	0	0	0	0	0	0	0.0571	0.0000	0.0000	0.0047;
	817	0	0	1	0.9	1.039	100	0	12	2.4	0	0	0	0	0	0	0	0	0	0	0	0.0000	0.0000	0.0000	0.0000;
	1335	30	0.643044555	10	-10	1.02268166	100	1	30	6	0	0	0	0	0	0	0	0	0	0	0	0.0337	0.0000	0.0000	0.0000;
	396	10.9999993	1.00000005	5	1	0.988322738	100	1	11	2.2	0	0	0	0	0	0	0	0	0	0	0	0.0008	0.0000	0.0000	0.0013;
	396	10.9999993	1.00000005	5	1	0.988322738	100	1	11	2.2	0	0	0	0	0	0	0	0	0	0	0	0.0008	0.0000	0.0000	0.0013;
	975	35	-15	15	-15	1.06054439	100	1	35	7	0	0	0	0	0	0	0	0	0	0	0	0.1124	0.0000	0.0000	0.0051;
	858	55.4	0	0	0	1.05841959	100	1	55.4	11.08	0	0	0	0	0	0	0	0	0	0	0	0.0621	0.0000	0.0007	0.0857;
	921	42	-19.7919848	25	-20	0.966442187	100	1	42	8.4	0	0	0	0	0	0	0	0	0	0	0	0.0345	0.0000	0.0000	0.0000;
	921	42	-19.7919848	25	-20	0.966442187	100	1	42	8.4	0	0	0	0	0	0	0	0	0	0	0	0.0345	0.0000	0.0000	0.0000;
	1255	87	-24.36	26.1	-24.36	1.05522852	100	1	87	17.4	0	0	0	0	0	0	0	0	0	0	0	0.0630	0.0000	0.0000	0.1537;
	169	5.95328338	0.670463327	8.3	-8.3	1.06614496	100	1	8.3	1.66	0	0	0	0	0	0	0	0	0	0	0	0.0000	0.0000	0.0000	0.0000;
	448	4.00000001	0	0	0	1.04129392	100	1	4	0	0	0	0	0	0	0	0	0	0	0	0	0.0259	0.0000	0.0000	0.0053;
	241	6.46572782	-1.9626942	5	-5	0.96910803	100	1	13	2.6	0	0	0	0	0	0	0	0	0	0	0	0.0000	0.0000	0.0000	0.0000;
	241	6.46572782	-1.9626942	5	-5	0.96910803	100	1	13	2.6	0	0	0	0	0	0	0	0	0	0	0	0.0000	0.0000	0.0000	0.0000;
	241	6.46572782	-1.9626942	5	-5	0.96910803	100	1	13	2.6	0	0	0	0	0	0	0	0	0	0	0	0.0000	0.0000	0.0000	0.0000;
	241	6.46572782	-1.9626942	5	-5	0.96910803	100	1	13	2.6	0	0	0	0	0	0	0	0	0	0	0	0.0000	0.0000	0.0000	0.0000;
	270	50	20.1807916	27	-9	1.0238643	100	1	50	10	0	0	0	0	0	0	0	0	0	0	0	0.0187	0.0000	0.0000	0.0000;
	885	8.00000001	1e-08	0	0	1.02913909	100	1	8	1.6	0	0	0	0	0	0	0	0	0	0	0	0.0158	0.0000	0.0015	0.0013;
	885	8.00000001	1e-08	0	0	1.02913909	100	1	8	1.6	0	0	0	0	0	0	0	0	0	0	0	0.0158	0.0000	0.0015	0.0013;
	876	53.9999946	0	0	0	1.04494137	100	1	54	10.8	0	0	0	0	0	0	0	0	0	0	0	0.0002	0.0000	0.0012	0.0152;
	46	30	-4	10	-4	1.07117391	100	1	30	6	0	0	0	0	0	0	0	0	0	0	0	0.0590	0.0000	0.0000	0.0046;
	803	13.8	-5.55999684	4.63	-5.56	1.03852831	100	1	13.8	2.76	0	0	0	0	0	0	0	0	0	0	0	0.0090	0.0000	0.0000	0.0003;
	356	41.4	-11.59	12.42	-11.59	1.05786294	100	1	41.4	8.28	0	0	0	0	0	0	0	0	0	0	0	0.0630	0.0000	0.0000	0.1085;
	100	130	-26	59	-26	1.03532408	100	1	130	26	0	0	0	0	0	0	0	0	0	0	0	0.0089	0.0000	0.0000	0.0099;
	707	21	-8	8	-8	1.05009172	100	1	21	4.2	0	0	0	0	0	0	0	0	0	0	0	0.0521	0.0000	0.0000	0.2374;
	973	0	0	0	0	1.039	100	0	0	-8	0	0	0	0	0	0	0	0	0	0	0	0.0000	0.0000	0.0000	0.0000;
	973	53	-8.20223806	17	-10	1.06894036	100	1	53	10.6	0	0	0	0	0	0	0	0	0	0	0	0.0532	0.0000	0.0000	0.0000;
	1118	55	0	0	0	1.03371786	100	1	55	11	0	0	0	0	0	0	0	0	0	0	0	0.0139	0.0000	0.0000	0.0071;
	897	27	10	10	-3	0.972135388	100	1	27	5.4	0	0	0	0	0	0	0	0	0	0	0	0.0156	0.0000	0.0032	0.0000;
	897	27	10	10	-3	0.972135388	100	1	27	5.4	0	0	0	0	0	0	0	0	0	0	0	0.0156	0.0000	0.0032	0.0000;
	58	0	0	2	1.9	1.037	100	0	6	1.2	0	0	0	0	0	0	0	0	0	0	0	0.0000	0.0000	0.0000	0.0000;
	82	25.3	0	0	0	1.03031195	100	1	25.3	5.06	0	0	0	0	0	0	0	0	0	0	0	0.0191	0.0000	0.0010	0.0019;
	474	52	-13	10	-13	1.03803221	100	1	52	10.4	0	0	0	0	0	0	0	0	0	0	0	0.0532	0.0000	0.0000	0.0814;
	1221	11.6001052	-12.1798004	35	-35	1.04758215	100	1	58	11.6	0	0	0	0	0	0	0	0	0	0	0	0.0000	0.0000	0.0000	0.0000;
	355	62	-40	40	-40	1.05000989	100	1	62	12.4	0	0	0	0	0	0	0	0	0	0	0	0.0520	0.0000	0.0000	0.2374;
	471	51.7551717	0	1	0	1.04291919	100	1	78	15.6	0	0	0	0	0	0	0	0	0	0	0	0.0000	0.0000	0.0000	0.0156;
	1321	11	0.9	1	0.9	1.07212234	100	1	11	2.2	0	0	0	0	0	0	0	0	0	0	0	0.0575	0.0000	0.0000	0.0047;
	1321	2.50000001	-0.1	0.1	-0.1	1.07212234	100	1	2.5	0	0	0	0	0	0	0	0	0	0	0	0	0.0575	0.0000	0.0000	0.0047;
	1829	23.5	3.95299631	8	-8	1.02889934	100	1	23.5	4.7	0	0	0	0	0	0	0	0	0	0	0	0.0176	0.0000	0.0000	0.0000;
	1005	39	-7.01520286	19	-19	1.07113708	100	1	39	7.8	0	0	0	0	0	0	0	0	0	0	0	0.0463	0.0000	0.0000	0.0000;
	14	27.6	0	0	0	1.03451798	100	1	27.6	5.52	0	0	0	0	0	0	0	0	0	0	0	0.0102	0.0000	0.0011	0.0017;
	14	24	0	0	0	1.03451798	100	1	24	4.8	0	0	0	0	0	0	0	0	0	0	0	0.0102	0.0000	0.0011	0.0017;
	1628	238.247082	-74.4336706	155.3	-217.55	0.95	100	1	670	200	0	0	0	0	0	0	0	0	0	0	0	0.0000	0.0000	0.0000	0.0000;
	1629	538.199542	-49.4385292	231.39	-190.58	0.95	100	1	700	140	0	0	0	0	0	0	0	0	0	0	0	0.0000	0.0000	0.0000	0.0000;
	1844	27	-15.38	24.62	-15.38	0.887533805	100	1	27	5.4	0	0	0	0	0	0	0	0	0	0	0	0.0970	0.0000	0.0000	0.0474;
	1630	86	8.50461875	43.86	-8.5	0.940562809	100	1	86	17.2	0	0	0	0	0	0	0	0	0	0	0	0.0020	0.0000	0.0000	0.0000;
	1631	49	6.42899639	22.19	-9.73	0.944788726	100	1	49	9.8	0	0	0	0	0	0	0	0	0	0	0	0.0020	0.0000	0.0000	0.0000;
	1846	32	-8.36	8.36	-8.36	1.00500427	100	1	32	6.4	0	0	0	0	0	0	0	0	0	0	0	0.0152	0.0000	0.0000	0.0080;
	1632	32	-8.36	8.36	-8.36	1.00500427	100	1	32	6.4	0	0	0	0	0	0	0	0	0	0	0	0.0152	0.0000	0.0000	0.0080;
	1847	32	-8.57	8.15	-8.57	1.00420341	100	1	32	6.4	0	0	0	0	0	0	0	0	0	0	0	0.0152	0.0000	0.0000	0.0080;
	1848	32	-8.57	8.15	-8.57	1.00420341	100	1	32	6.4	0	0	0	0	0	0	0	0	0	0	0	0.0152	0.0000	0.0000	0.0080;
	1852	92	-35.43	54.57	-35.43	0.91308333	100	1	92	18.4	0	0	0	0	0	0	0	0	0	0	0	0.0118	0.0000	0.0000	0.0040;
	1854	92	56.48	56.48	-33.52	1.06861353	100	1	92	18.4	0	0	0	0	0	0	0	0	0	0	0	0.0057	0.0000	0.0063	0.0000;
	1633	945.08	73.2870392	421.39	-376.62	1.002155	100	1	945.08	255.07	0	0	0	0	0	0	0	0	0	0	0	0.1029	0.0000	0.0000	0.0000;
	1634	978.04	33.7012502	428.83	-369.21	0.996537901	100	1	978.04	288.05	0	0	0	0	0	0	0	0	0	0	0	0.1030	0.0000	0.0000	0.0000;
	1635	976.08	80.5672764	428.07	-369.92	1.0026132	100	1	976.08	256.08	0	0	0	0	0	0	0	0	0	0	0	0.1028	0.0000	0.0000	0.0000;
	1636	943.08	72.9262082	420.86	-377.13	1.0021233	100	1	943.08	253.07	0	0	0	0	0	0	0	0	0	0	0	0.1029	0.0000	0.0000	0.0000;
	1637	156	-6.19189461	153.03	-90.23	0.95	100	1	252	156	0	0	0	0	0	0	0	0	0	0	0	0.0000	0.0035	0.0000	0.0000;
	1638	154	-6.12757577	152.44	-90.81	0.95	100	1	250	154	0	0	0	0	0	0	0	0	0	0	0	0.0000	0.0032	0.0000	0.0000;
	1639	250	-39.511956	105.68	-58.28	0.95	100	1	250	154	0	0	0	0	0	0	0	0	0	0	0	0.0009	0.0000	0.0000	0.0000;
	1640	305	-76.8512034	228.81	-159.91	0.95	100	1	305	122	0	0	0	0	0	0	0	0	0	0	0	0.0009	0.0000	0.0000	0.0000;
	1641	155	-41.362574	94.32	-74.64	0.95	100	1	155	89	0	0	0	0	0	0	0	0	0	0	0	0.0009	0.0000	0.0000	0.0000;
	1642	11.6	-18.77	21.65	-18.77	0.944297949	100	1	58	11.6	0	0	0	0	0	0	0	0	0	0	0	0.0000	0.0021	0.0000	0.0276;
	1643	58	-10.66	16.01	-10.66	0.950322129	100	1	58	11.6	0	0	0	0	0	0	0	0	0	0	0	0.0028	0.0000	0.0000	0.0275;
	1855	11.6	-18.95	21.47	-18.95	0.943979161	100	1	58	11.6	0	0	0	0	0	0	0	0	0	0	0	0.0000	0.0021	0.0000	0.0276;
	1644	11.6	-10.62	16.05	-10.62	0.956434583	100	1	58	11.6	0	0	0	0	0	0	0	0	0	0	0	0.0000	0.0021	0.0000	0.0268;
	1645	58	-10.86	15.81	-10.86	0.949931251	100	1	58	11.6	0	0	0	0	0	0	0	0	0	0	0	0.0028	0.0000	0.0000	0.0276;
	1646	263	15.7424172	146.45	-90.18	0.95	100	1	263	133	0	0	0	0	0	0	0	0	0	0	0	0.0190	0.0000	0.0000	0.0000;
	1647	44.96	2.9952201	50.67	-38.09	1.01925473	100	1	44.96	8.99	0	0	0	0	0	0	0	0	0	0	0	0.0159	0.0000	0.0000	0.0000;
	1861	27.8202148	0.121203931	19.75	-16.25	1.04241716	100	1	32	6.4	0	0	0	0	0	0	0	0	0	0	0	0.0000	0.0000	0.0000	0.0000;
	1648	912.406205	-80.0392547	530.99	-158.23	0.931668	100	1	936.29	266.29	0	0	0	0	0	0	0	0	0	0	0	0.0000	0.0000	0.0000	0.0000;
	1649	942.82	-101.037862	533.69	-156.07	0.929079	100	1	942.82	272.82	0	0	0	0	0	0	0	0	0	0	0	0.0004	0.0000	0.0000	0.0000;
	1650	639.121167	-152.82	537.68	-152.82	0.925079	100	1	924.28	274.28	0	0	0	0	0	0	0	0	0	0	0	0.0000	0.0000	0.0000	0.0064;
	1651	922.8	-29.8257694	529.89	-160.89	0.939206	100	1	922.8	272.8	0	0	0	0	0	0	0	0	0	0	0	0.0003	0.0000	0.0000	0.0000;
	1652	318	-118.878762	681.04	-153	0.945179	100	1	1308	318	0	0	0	0	0	0	0	0	0	0	0	0.0000	0.0359	0.0000	0.0000;
	1862	318	-94.902501	681.03	-153	0.94762	100	1	1308	318	0	0	0	0	0	0	0	0	0	0	0	0.0000	0.0359	0.0000	0.0000;
	1653	35	-1.92	6.08	-1.92	1.03051474	100	1	35	7	0	0	0	0	0	0	0	0	0	0	0	0.0138	0.0000	0.0000	0.0074;
	1654	35	-1.79	6.21	-1.79	1.03076908	100	1	35	7	0	0	0	0	0	0	0	0	0	0	0	0.0138	0.0000	0.0000	0.0074;
	1655	35	-1.79	6.21	-1.79	1.03076908	100	1	35	7	0	0	0	0	0	0	0	0	0	0	0	0.0138	0.0000	0.0000	0.0074;
	1656	35	-1.89	6.11	-1.89	1.03056706	100	1	35	7	0	0	0	0	0	0	0	0	0	0	0	0.0138	0.0000	0.0000	0.0074;
	1657	35	-1.89	6.11	-1.89	1.03056706	100	1	35	7	0	0	0	0	0	0	0	0	0	0	0	0.0138	0.0000	0.0000	0.0074;
	1658	35	-1.89	6.11	-1.89	1.03056706	100	1	35	7	0	0	0	0	0	0	0	0	0	0	0	0.0138	0.0000	0.0000	0.0074;
	1863	7.39000462	-0.204707411	18.45	-13.16	0.977503685	100	1	36.97	7.39	0	0	0	0	0	0	0	0	0	0	0	0.0000	0.0002	0.0000	0.0000;
	1659	7.39000462	-0.204707375	18.45	-13.16	0.977503685	100	1	36.97	7.39	0	0	0	0	0	0	0	0	0	0	0	0.0000	0.0002	0.0000	0.0000;
	1660	7.39000462	0.766410015	18.45	-11.35	0.980809615	100	1	36.97	7.39	0	0	0	0	0	0	0	0	0	0	0	0.0000	0.0002	0.0000	0.0000;
	1661	7.39000462	0.487186596	18.11	-11.7	0.979861351	100	1	36.97	7.39	0	0	0	0	0	0	0	0	0	0	0	0.0000	0.0002	0.0000	0.0000;
	1662	7.39000388	-0.290634929	18.21	-13.41	0.977254443	100	1	36.97	7.39	0	0	0	0	0	0	0	0	0	0	0	0.0000	0.0003	0.0000	0.0000;
	1663	7.39000388	-0.0170037996	18.55	-13.05	0.978188734	100	1	36.97	7.39	0	0	0	0	0	0	0	0	0	0	0	0.0000	0.0003	0.0000	0.0000;
	1865	20	-7.67999989	12.32	-7.68	0.91158146	100	1	20	4	0	0	0	0	0	0	0	0	0	0	0	0.0106	0.0000	0.0000	0.0013;
	1866	21.0703051	2.98612746	17.85	-13.79	0.985941208	100	1	30.98	6.2	0	0	0	0	0	0	0	0	0	0	0	0.0000	0.0000	0.0000	0.0000;
	1664	21.0703051	2.98612746	17.85	-13.79	0.985941208	100	1	30.98	6.2	0	0	0	0	0	0	0	0	0	0	0	0.0000	0.0000	0.0000	0.0000;
	1665	21.0718542	3.11222581	18.01	-13.62	0.9863657	100	1	30.98	6.2	0	0	0	0	0	0	0	0	0	0	0	0.0000	0.0000	0.0000	0.0000;
	1867	21.0718542	3.11222581	18.01	-13.62	0.9863657	100	1	30.98	6.2	0	0	0	0	0	0	0	0	0	0	0	0.0000	0.0000	0.0000	0.0000;
	1666	17.9476008	1.8838398	17.89	-13.75	0.982929027	100	1	30.98	6.2	0	0	0	0	0	0	0	0	0	0	0	0.0000	0.0000	0.0000	0.0000;
	1868	17.9462201	1.76573987	17.74	-13.91	0.982528915	100	1	30.98	6.2	0	0	0	0	0	0	0	0	0	0	0	0.0000	0.0000	0.0000	0.0000;
	1667	489.025707	-105.262166	656.06	-184.89	0.942976	100	1	1330	337	0	0	0	0	0	0	0	0	0	0	0	0.0000	0.0000	0.0000	0.0000;
	1668	367	-118.37291	656.92	-183.9	0.940042	100	1	1360	367	0	0	0	0	0	0	0	0	0	0	0	0.0000	0.0006	0.0000	0.0000;
	1669	367	-144.60194	648.03	-192.8	0.937422234	100	1	1360	367	0	0	0	0	0	0	0	0	0	0	0	0.0000	0.0007	0.0000	0.0000;
	1670	1.50000001	-65.6643095	281.46	-103.91	0.916399	100	1	1.5	1.4	0	0	0	0	0	0	0	0	0	0	0	0.0888	0.0000	0.0000	0.0000;
	1873	240	-45.97	94.03	-45.97	0.93265619	100	1	240	48	0	0	0	0	0	0	0	0	0	0	0	0.0032	0.0000	0.0000	0.0034;
	1874	240	-44.89	95.11	-44.89	0.93331497	100	1	240	48	0	0	0	0	0	0	0	0	0	0	0	0.0032	0.0000	0.0000	0.0034;
	1671	942.72	-5.28196292	524.6	-107.2	0.95	100	1	942.72	232.72	0	0	0	0	0	0	0	0	0	0	0	0.0764	0.0000	0.0000	0.0000;
	1673	953.74	-5.01419781	511.64	-99.08	0.95	100	1	953.74	243.74	0	0	0	0	0	0	0	0	0	0	0	0.0763	0.0000	0.0000	0.0000;
	1674	952.74	-11.4654458	555.41	-99.32	0.949137	100	1	952.74	242.74	0	0	0	0	0	0	0	0	0	0	0	0.0763	0.0000	0.0000	0.0000;
	1675	719.50126	-17.2153963	682.28	-126.36	0.943829	100	1	1503	403	0	0	0	0	0	0	0	0	0	0	0	0.0000	0.0000	0.0000	0.0000;
	1676	606.622192	16.3594766	687.17	-121.66	0.95	100	1	1503	403	0	0	0	0	0	0	0	0	0	0	0	0.0000	0.0000	0.0000	0.0000;
	1875	1498	63.7963029	409.45	-352.29	0.973416345	100	1	1498	398	0	0	0	0	0	0	0	0	0	0	0	0.1623	0.0000	0.0000	0.0000;
	1677	1498	43.4844313	409.42	-352.33	0.971450598	100	1	1498	398	0	0	0	0	0	0	0	0	0	0	0	0.1623	0.0000	0.0000	0.0000;
	2022	75	38.3282279	51.88	-38.44	1.1	100	1	75	15	0	0	0	0	0	0	0	0	0	0	0	0.0027	0.0000	0.0000	0.0000;
	1876	75	38.3282279	51.88	-38.44	1.1	100	1	75	15	0	0	0	0	0	0	0	0	0	0	0	0.0027	0.0000	0.0000	0.0000;
	1877	75	38.3282279	51.88	-38.44	1.1	100	1	75	15	0	0	0	0	0	0	0	0	0	0	0	0.0027	0.0000	0.0000	0.0000;
	1878	75	38.3282279	51.88	-38.44	1.1	100	1	75	15	0	0	0	0	0	0	0	0	0	0	0	0.0027	0.0000	0.0000	0.0000;
	1678	95	-2.39491792	104.12	-61.4	0.95	100	1	95	8.5	0	0	0	0	0	0	0	0	0	0	0	0.0018	0.0000	0.0000	0.0000;
	1679	95	-2.39544508	103.94	-61.58	0.95	100	1	95	8.5	0	0	0	0	0	0	0	0	0	0	0	0.0018	0.0000	0.0000	0.0000;
	1680	148.2	-7.18916689	86.67	-10.65	0.95	100	1	148.2	4.2	0	0	0	0	0	0	0	0	0	0	0	0.0012	0.0000	0.0000	0.0000;
	1681	685	73.6419326	220.22	-59.17	0.95	100	1	685	180	0	0	0	0	0	0	0	0	0	0	0	0.0697	0.0000	0.0000	0.0000;
	1682	610	-98.3556398	330.28	-165.24	0.910437	100	1	610	310	0	0	0	0	0	0	0	0	0	0	0	0.0695	0.0000	0.0000	0.0000;
	1683	610	-115.494578	297.67	-191.83	0.910046	100	1	610	310	0	0	0	0	0	0	0	0	0	0	0	0.0697	0.0000	0.0000	0.0000;
	1684	251.417851	-21.194166	254.82	-293.65	0.959107644	100	1	700	205	0	0	0	0	0	0	0	0	0	0	0	0.0000	0.0000	0.0000	0.0000;
	1881	50	-13.8	15.6	-13.8	0.903198389	100	1	50	10	0	0	0	0	0	0	0	0	0	0	0	0.0031	0.0000	0.0000	0.0285;
	1882	50	-14.2	15.2	-14.2	0.902052089	100	1	50	10	0	0	0	0	0	0	0	0	0	0	0	0.0031	0.0000	0.0000	0.0286;
	1685	50	-13.6	15.81	-13.6	0.903770365	100	1	50	10	0	0	0	0	0	0	0	0	0	0	0	0.0031	0.0000	0.0000	0.0285;
	1883	50	-13.6	15.81	-13.6	0.903770365	100	1	50	10	0	0	0	0	0	0	0	0	0	0	0	0.0031	0.0000	0.0000	0.0285;
	1884	50	-13.6	15.81	-13.6	0.903770365	100	1	50	10	0	0	0	0	0	0	0	0	0	0	0	0.0031	0.0000	0.0000	0.0285;
	1885	50	-13.8	15.6	-13.8	0.903198389	100	1	50	10	0	0	0	0	0	0	0	0	0	0	0	0.0031	0.0000	0.0000	0.0285;
	1686	422.867137	-13.5367456	532.91	-90.14	0.960662612	100	1	1000	280	0	0	0	0	0	0	0	0	0	0	0	0.0000	0.0000	0.0000	0.0000;
	1687	422.867137	-13.5447876	535.45	-87.61	0.960664221	100	1	1000	280	0	0	0	0	0	0	0	0	0	0	0	0.0000	0.0000	0.0000	0.0000;
	1688	422.867137	-13.6081646	567.71	-88.3	0.960677532	100	1	1000	280	0	0	0	0	0	0	0	0	0	0	0	0.0000	0.0000	0.0000	0.0000;
	1689	0	0	559.16	-96.85	0.964	100	0	930	280	0	0	0	0	0	0	0	0	0	0	0	0.0000	0.0000	0.0000	0.0000;
	1888	57	17.3499855	17.35	-17.35	1.02212331	100	1	57	11.4	0	0	0	0	0	0	0	0	0	0	0	0.0086	0.0000	0.0001	0.0000;
	1690	306.664484	28.4630277	219.77	-155.72	0.953431878	100	1	451	239	0	0	0	0	0	0	0	0	0	0	0	0.0000	0.0000	0.0000	0.0000;
	1691	62.9999987	-2.38633246	51.25	-10.63	0.955506481	100	1	63	21	0	0	0	0	0	0	0	0	0	0	0	0.0006	0.0000	0.0000	0.0000;
	1692	248.8	-43.4837178	258.1	-182.18	0.971826694	100	1	433.8	248.8	0	0	0	0	0	0	0	0	0	0	0	0.0000	0.0046	0.0000	0.0000;
	1693	168.169987	55.6625616	71.21	-44.25	1.00933115	100	1	168.17	81.81	0	0	0	0	0	0	0	0	0	0	0	0.0001	0.0000	0.0000	0.0000;
	1694	165.256508	52.0180778	73.34	-37.69	1.00666505	100	1	168.6	82.28	0	0	0	0	0	0	0	0	0	0	0	0.0000	0.0000	0.0000	0.0000;
	1695	244.803304	90.1834662	113.53	-43.7	1.01023305	100	1	248.21	53.91	0	0	0	0	0	0	0	0	0	0	0	0.0000	0.0000	0.0000	0.0000;
	1696	238.089988	85.3704347	100.92	-59.36	1.00761608	100	1	238.09	43.97	0	0	0	0	0	0	0	0	0	0	0	0.0001	0.0000	0.0000	0.0000;
	1697	229.69	-37.4169481	525.14	-88.61	0.95	100	1	919.69	229.69	0	0	0	0	0	0	0	0	0	0	0	0.0000	0.0535	0.0000	0.0000;
	1698	229.69	-37.4169481	525.14	-88.61	0.95	100	1	919.69	229.69	0	0	0	0	0	0	0	0	0	0	0	0.0000	0.0535	0.0000	0.0000;
	1699	236.69	-37.2360453	526.77	-86.99	0.95	100	1	926.69	236.69	0	0	0	0	0	0	0	0	0	0	0	0.0000	0.0534	0.0000	0.0000;
	1700	251.69	-37.935766	530.29	-83.48	0.95	100	1	941.69	251.69	0	0	0	0	0	0	0	0	0	0	0	0.0000	0.0530	0.0000	0.0000;
	1701	32	-9.68	10.32	-9.68	0.960744324	100	1	32	6.4	0	0	0	0	0	0	0	0	0	0	0	0.2153	0.0000	0.0000	0.9437;
	1702	39.88	1.9659567	19.22	-17.67	0.964569642	100	1	39.88	7.98	0	0	0	0	0	0	0	0	0	0	0	0.0167	0.0000	0.0000	0.0000;
	1703	39.88	1.96596447	19.34	-17.74	0.964569663	100	1	39.88	7.98	0	0	0	0	0	0	0	0	0	0	0	0.0167	0.0000	0.0000	0.0000;
	1889	39.88	1.96595999	19.24	-17.66	0.964569651	100	1	39.88	7.98	0	0	0	0	0	0	0	0	0	0	0	0.0167	0.0000	0.0000	0.0000;
	1704	1380	209.033639	398.39	-396.86	1.00048314	100	1	1380	340	0	0	0	0	0	0	0	0	0	0	0	0.0076	0.0000	0.0000	0.0000;
	1705	1380	231.973584	371.08	-424.16	1.00273495	100	1	1380	340	0	0	0	0	0	0	0	0	0	0	0	0.0074	0.0000	0.0000	0.0000;
	1890	24	5.35000001	5.35	-2.57	0.991254883	100	1	24	4.8	0	0	0	0	0	0	0	0	0	0	0	0.0078	0.0000	0.0040	0.0000;
	1891	24	5.48000001	5.48	-2.43	0.991917083	100	1	24	4.8	0	0	0	0	0	0	0	0	0	0	0	0.0078	0.0000	0.0040	0.0000;
	1892	24	5.00000001	5	-2.93	0.989467637	100	1	24	4.8	0	0	0	0	0	0	0	0	0	0	0	0.0078	0.0000	0.0040	0.0000;
	1706	24	5.29000001	5.29	-2.63	0.990948954	100	1	24	4.8	0	0	0	0	0	0	0	0	0	0	0	0.0078	0.0000	0.0040	0.0000;
	1707	23.99	9.99999671	10	-4.98	1.026961	100	1	23.99	4.8	0	0	0	0	0	0	0	0	0	0	0	0.0028	0.0000	0.0003	0.0000;
	2026	23.99	8.25999678	8.26	-6.79	1.01901961	100	1	23.99	4.8	0	0	0	0	0	0	0	0	0	0	0	0.0028	0.0000	0.0003	0.0000;
	1898	23.99	10.1699967	10.17	-4.8	1.02773048	100	1	23.99	4.8	0	0	0	0	0	0	0	0	0	0	0	0.0028	0.0000	0.0003	0.0000;
	1708	23.99	1.80999702	1.81	1.8	0.988456585	100	1	23.99	4.8	0	0	0	0	0	0	0	0	0	0	0	0.0028	0.0000	0.0004	0.0000;
	1709	23.99	10.1599967	10.16	-4.81	1.02768525	100	1	23.99	4.8	0	0	0	0	0	0	0	0	0	0	0	0.0028	0.0000	0.0003	0.0000;
	1710	26.7246359	4.49531699	12.23	-7.55	0.998940312	100	1	28.98	5.8	0	0	0	0	0	0	0	0	0	0	0	0.0000	0.0000	0.0000	0.0000;
	1711	26.724791	4.56744183	12.31	-7.46	0.99922724	100	1	28.98	5.8	0	0	0	0	0	0	0	0	0	0	0	0.0000	0.0000	0.0000	0.0000;
	1712	1308	-1.91173009	615.09	-439.22	0.980299894	100	1	1308	288	0	0	0	0	0	0	0	0	0	0	0	0.0803	0.0000	0.0000	0.0000;
	1713	1308	-7.4415695	614.63	-439.67	0.979789478	100	1	1308	288	0	0	0	0	0	0	0	0	0	0	0	0.0804	0.0000	0.0000	0.0000;
	1714	215.595324	-0.00711953694	255.9	-84.1	0.974468273	100	1	458.26	89.26	0	0	0	0	0	0	0	0	0	0	0	0.0000	0.0000	0.0000	0.0000;
	1715	370.496291	55.9417097	524.88	-98.23	0.95	100	1	947	237	0	0	0	0	0	0	0	0	0	0	0	0.0000	0.0000	0.0000	0.0000;
	1716	375.503909	56.183781	528.27	-94.91	0.95	100	1	947	267	0	0	0	0	0	0	0	0	0	0	0	0.0000	0.0000	0.0000	0.0000;
	1717	412.450051	49.1505355	529.5	-93.67	0.948695778	100	1	947	237	0	0	0	0	0	0	0	0	0	0	0	0.0000	0.0000	0.0000	0.0000;
	1718	390.556075	46.9859671	528.59	-94.53	0.948539316	100	1	947	237	0	0	0	0	0	0	0	0	0	0	0	0.0000	0.0000	0.0000	0.0000;
	1719	372.500413	56.0301502	529.53	-93.65	0.95	100	1	947	237	0	0	0	0	0	0	0	0	0	0	0	0.0000	0.0000	0.0000	0.0000;
	1720	286.910463	52.5367516	504.13	-118.98	0.95	100	1	947	237	0	0	0	0	0	0	0	0	0	0	0	0.0000	0.0000	0.0000	0.0000;
	1721	240	6.5341519	104.81	-37.31	0.95	100	1	240	125	0	0	0	0	0	0	0	0	0	0	0	0.0193	0.0000	0.0000	0.0000;
	1906	60.5886661	-19.2727748	69.06	-76.42	0.948622281	100	1	169.4	33.88	0	0	0	0	0	0	0	0	0	0	0	0.0000	0.0000	0.0000	0.0000;
	1907	60.5883653	-19.3005039	69.08	-76.5	0.948597661	100	1	169.4	33.88	0	0	0	0	0	0	0	0	0	0	0	0.0000	0.0000	0.0000	0.0000;
	1908	60.5880867	-19.3225821	68.92	-76.49	0.948578059	100	1	169.4	33.88	0	0	0	0	0	0	0	0	0	0	0	0.0000	0.0000	0.0000	0.0000;
	1909	60.5872055	-19.3916666	68.97	-76.69	0.948516718	100	1	169.4	33.88	0	0	0	0	0	0	0	0	0	0	0	0.0000	0.0000	0.0000	0.0000;
	1910	60.5880175	-19.328181	69.1	-76.58	0.948573088	100	1	169.4	33.88	0	0	0	0	0	0	0	0	0	0	0	0.0000	0.0000	0.0000	0.0000;
	1911	60.5882067	-19.3127243	69.1	-76.54	0.948586811	100	1	169.4	33.88	0	0	0	0	0	0	0	0	0	0	0	0.0000	0.0000	0.0000	0.0000;
	1912	60.5858308	-19.5018744	68.67	-76.85	0.948418845	100	1	169.4	33.88	0	0	0	0	0	0	0	0	0	0	0	0.0000	0.0000	0.0000	0.0000;
	1913	60.5855392	-19.5254858	68.69	-76.92	0.948397874	100	1	169.4	33.88	0	0	0	0	0	0	0	0	0	0	0	0.0000	0.0000	0.0000	0.0000;
	1722	321.367221	12.7917154	272.9	-127.1	0.955210991	100	1	456.8	216.8	0	0	0	0	0	0	0	0	0	0	0	0.0000	0.0000	0.0000	0.0000;
	1723	260	-18.8328064	159.71	-80.29	0.95	100	1	260	130	0	0	0	0	0	0	0	0	0	0	0	0.0011	0.0000	0.0000	0.0000;
	1724	0	0	198.66	-190.41	0.967	100	0	585	250	0	0	0	0	0	0	0	0	0	0	0	0.0000	0.0000	0.0000	0.0000;
	1725	298.617398	7.1737274	199.31	-189.68	0.95	100	1	585	250	0	0	0	0	0	0	0	0	0	0	0	0.0000	0.0000	0.0000	0.0000;
	1919	19.98	-16.2526688	20.64	-19.15	0.950976437	100	1	19.98	4	0	0	0	0	0	0	0	0	0	0	0	0.0218	0.0000	0.0000	0.0000;
	1920	23.98	-15.7260967	20.43	-19.38	0.951812929	100	1	23.98	4.8	0	0	0	0	0	0	0	0	0	0	0	0.0218	0.0000	0.0000	0.0000;
	1921	23.98	-15.7240902	21	-18.66	0.95181973	100	1	23.98	4.8	0	0	0	0	0	0	0	0	0	0	0	0.0218	0.0000	0.0000	0.0000;
	1922	23.98	-15.725204	20.73	-19	0.951815955	100	1	23.98	4.8	0	0	0	0	0	0	0	0	0	0	0	0.0218	0.0000	0.0000	0.0000;
	1923	23.98	-15.4417357	21.26	-18.37	0.94672154	100	1	23.98	4.8	0	0	0	0	0	0	0	0	0	0	0	0.0218	0.0000	0.0000	0.0000;
	1924	23.98	-15.4422735	21.26	-18.37	0.946730654	100	1	23.98	4.8	0	0	0	0	0	0	0	0	0	0	0	0.0218	0.0000	0.0000	0.0000;
	1726	7.00000038	-8.35	9.31	-8.35	0.937606426	100	1	35	7	0	0	0	0	0	0	0	0	0	0	0	0.0000	0.0010	0.0000	0.0186;
	1727	7.00000039	-8.54	9.12	-8.54	0.936952148	100	1	35	7	0	0	0	0	0	0	0	0	0	0	0	0.0000	0.0010	0.0000	0.0187;
	1728	35	-13.09	10.16	-13.09	0.913448796	100	1	35	7	0	0	0	0	0	0	0	0	0	0	0	0.0028	0.0000	0.0000	0.0200;
	1928	7.00000038	-8.35	9.31	-8.35	0.937606426	100	1	35	7	0	0	0	0	0	0	0	0	0	0	0	0.0000	0.0010	0.0000	0.0186;
	1729	235	-14.8507205	104.52	-144.76	0.942775	100	1	235	120	0	0	0	0	0	0	0	0	0	0	0	0.0010	0.0000	0.0000	0.0000;
	1931	73	24.52524	47.31	-36.19	1.03602662	100	1	73	14.6	0	0	0	0	0	0	0	0	0	0	0	0.0021	0.0000	0.0000	0.0000;
	1932	69	23.7315992	51.14	-32.55	1.04367568	100	1	69	13.8	0	0	0	0	0	0	0	0	0	0	0	0.0021	0.0000	0.0000	0.0000;
...
];

%% branch data
%	fbus	tbus	r	x	b	rateA	rateB	rateC	ratio	angle	status	angmin	angmax	Pf	Qf	Pt	Qt	mu_Sf	mu_St	mu_angmin	mu_angmax
mpc.branch = [
	1833	1	0.002607	0.017462	0.0324	540	540	540	1	0	1	0	0	5.8022	-9.2578	-5.8000	5.8000	0.0000	0.0000	0.0000	0.0000;
	29	2	2.1e-05	0.000125	0.1386	737	737	737	1	0	1	0	0	238.2471	-88.0587	-238.2352	72.6797	0.0000	0.0000	0.0000	0.0000;
	675	2	0.000145	0.001877	0.0635	2487	2487	2487	1	0	1	0	0	-376.8329	27.6178	377.0189	-32.2893	0.0000	0.0000	0.0000	0.0000;
	1271	2	0.000319	0.003234	0.0838	1841	1841	1841	1	0	1	0	0	-398.8514	134.3759	399.3591	-138.5967	0.0000	0.0000	0.0000	0.0000;
	30	2	2.1e-05	0.000125	0.1386	737	737	737	1	0	1	0	0	538.1995	-113.3193	-538.1429	98.2063	0.0000	0.0000	0.0000	0.0000;
	142	3	0.006163	0.041067	0.0759	446	446	446	1	0	1	0	0	11.3311	-24.8055	-11.2994	16.7519	0.0000	0.0000	0.0000	0.0000;
	677	3	0.000652	0.004369	0.0081	558	558	558	1	0	1	0	0	131.3030	3.1486	-131.2006	-3.3519	0.0000	0.0000	0.0000	0.0000;
	1048	4	0.009733	0.034089	0.0185	0	0	0	1	0	1	0	0	24.4481	11.7709	-24.3820	-13.6033	0.0000	0.0000	0.0000	0.0000;
	101	5	0.000277	0.002015	0.003	288	288	288	1	0	1	0	0	-86.8340	-4.9416	86.8526	4.7377	0.0000	0.0000	0.0000	0.0000;
	286	6	0.00881	0.033995	0.0607	289	289	289	1	0	1	0	0	-114.9062	8.0657	115.9638	-10.7694	0.0000	0.0000	0.0000	0.0000;
	329	6	0.004642	0.019832	0.0354	255	255	255	1	0	1	0	0	-20.8260	1.3345	20.8444	-5.2364	0.0000	0.0000	0.0000	0.0000;
	737	5	0.008861	0.03506	0.0623	288	288	288	1	0	1	0	0	-42.6443	-1.3075	42.7881	-5.1422	0.0000	0.0000	0.0000	0.0000;
	760	5	0.006993	0.032869	0.0557	255	255	255	1	0	1	0	0	-13.6963	6.7098	13.7139	-12.9325	0.0000	0.0000	0.0000	0.0000;
	1330	6	0.002173	0.008731	0.0152	0	0	0	1	0	1	0	0	-42.6000	-12.8000	42.6380	11.2459	0.0000	0.0000	0.0000	0.0000;
	1350	5	0.00077	0.003121	0.0051	0	0	0	1	0	1	0	0	18.6000	13.6000	-18.5963	-14.1616	0.0000	0.0000	0.0000	0.0000;
	1523	6	0.004109	0.016138	0.0284	288	288	288	1	0	1	0	0	-5.7298	8.3788	5.7346	-11.5580	0.0000	0.0000	0.0000	0.0000;
	102	8	8.3e-05	0.000907	0.0202	1034	1034	1034	1	0	1	0	0	92.0000	41.1718	-91.9924	-43.3494	0.0000	0.0000	0.0000	0.0000;
	316	8	0.000552	0.006726	0.0939	1786	1786	1786	1	0	1	0	0	437.9363	305.0876	-436.5697	-299.1530	0.0000	0.0000	0.0000	0.0000;
	623	8	0.000512	0.008012	0.2455	2462	2462	2462	1	0	1	0	0	431.0110	-167.8363	-430.0328	155.9436	0.0000	0.0000	0.0000	0.0000;
	882	8	0.001107	0.00918	0.1906	1644	1644	1644	1	0	1	0	0	-313.8901	9.4480	314.8726	-22.5843	0.0000	0.0000	0.0000	0.0000;
	103	7	6.2e-05	0.000741	0.0173	1095	1095	1095	1	0	1	0	0	92.0000	-52.9166	-91.9936	51.1121	0.0000	0.0000	0.0000	0.0000;
	623	8	0.000512	0.008019	0.2455	2462	2462	2462	1	0	1	0	0	430.6448	-167.6782	-429.6684	155.7722	0.0000	0.0000	0.0000	0.0000;
	623	7	0.001153	0.013123	0.1841	1433	1433	1433	1	0	1	0	0	300.5778	6.0243	-299.6256	-15.2953	0.0000	0.0000	0.0000	0.0000;
	113	9	0.000158	0.000672	0.0719	331	331	331	1	0	1	0	0	5.8001	-8.4578	-5.8000	0.5208	0.0000	0.0000	0.0000	0.0000;
	1134	9	4.5e-05	8.9e-05	0.002	268	268	268	1	0	1	0	0	-5.8000	0.3000	5.8000	-0.5208	0.0000	0.0000	0.0000	0.0000;
	346	10	0.00478	0.028622	0.0547	455	455	455	1	0	1	0	0	55.7973	4.9473	-55.6598	-10.1350	0.0000	0.0000	0.0000	0.0000;
	345	10	0.00478	0.028583	0.0547	455	455	455	1	0	1	0	0	93.5194	1.0181	-93.1402	-4.7650	0.0000	0.0000	0.0000	0.0000;
	106	11	0.000257	0.000514	0.0294	0	0	0	1	0	1	0	0	25.6016	1.7980	-25.6000	-5.0000	0.0000	0.0000	0.0000	0.0000;
	758	12	0.000257	0.002153	0.2147	452	452	452	1	0	1	0	0	-90.3564	-22.4216	90.3768	0.1969	0.0000	0.0000	0.0000	0.0000;
	962	12	0.000277	0.000869	0.0931	481	481	481	1	0	1	0	0	129.5213	-0.6829	-129.4768	-8.8969	0.0000	0.0000	0.0000	0.0000;
	955	13	0.000237	0.00083	0.1863	268	268	268	1	0	1	0	0	52.8438	-1.4611	-52.8375	-18.8288	0.0000	0.0000	0.0000	0.0000;
	995	13	0.000178	0.000612	0.1377	268	268	268	1	0	1	0	0	17.6631	-16.6365	-17.6625	1.6288	0.0000	0.0000	0.0000	0.0000;
	39	14	0.002568	0.011753	0.0203	424	424	424	1	0	1	0	0	4.1863	-8.5426	-4.1845	6.3797	0.0000	0.0000	0.0000	0.0000;
	1428	14	0.002568	0.011615	0.0228	290	290	290	1	0	1	0	0	-19.7751	-0.2170	19.7845	-2.1797	0.0000	0.0000	0.0000	0.0000;
	1054	16	9.9e-05	0.00077	0.078	379	379	379	1	0	1	0	0	-91.4924	2.2126	91.5000	-10.7140	0.0000	0.0000	0.0000	0.0000;
	1054	15	9.9e-05	0.00077	0.077	379	379	379	1	0	1	0	0	-91.4924	2.3218	91.5000	-10.7135	0.0000	0.0000	0.0000	0.0000;
	1428	17	0.000514	0.003437	0.0061	290	290	290	1	0	1	0	0	19.7751	0.2170	-19.7732	-0.8567	0.0000	0.0000	0.0000	0.0000;
	1432	17	0.005476	0.036879	0.1255	522	522	522	1	0	1	0	0	-98.6312	-0.6651	99.1349	-9.3132	0.0000	0.0000	0.0000	0.0000;
	39	17	0.000514	0.003457	0.0061	418	418	418	1	0	1	0	0	103.1152	-22.8616	-103.0616	22.5699	0.0000	0.0000	0.0000	0.0000;
	869	18	0.003477	0.01118	0.0187	304	304	304	1	0	1	0	0	-44.9461	8.3493	45.0147	-10.1296	0.0000	0.0000	0.0000	0.0000;
	1089	18	0.000612	0.003121	0.0152	270	270	270	1	0	1	0	0	50.9309	-16.4735	-50.9147	14.9296	0.0000	0.0000	0.0000	0.0000;
	1164	20	2.4e-05	0.000144	0.0213	701	701	701	1	0	1	0	0	6.9000	-1.4830	-6.9000	-0.8000	0.0000	0.0000	0.0000	0.0000;
	1164	19	7.1e-05	0.000162	0.0162	251	251	251	1	0	1	0	0	34.0008	1.9654	-34.0000	-3.7000	0.0000	0.0000	0.0000	0.0000;
	972	21	0.000257	0.001165	0.002	405	405	405	1	0	1	0	0	9.2022	-29.3090	-9.2000	29.1000	0.0000	0.0000	0.0000	0.0000;
	476	22	0.005709	0.037926	0.0688	492	492	492	1	0	1	0	0	-2.6841	-9.4538	2.6862	2.0289	0.0000	0.0000	0.0000	0.0000;
	1497	22	0.001758	0.011654	0.0208	492	492	492	1	0	1	0	0	70.4667	-3.2933	-70.3862	1.5711	0.0000	0.0000	0.0000	0.0000;
	69	23	0.001383	0.009462	0.0172	463	463	463	1	0	1	0	0	62.9981	11.2510	-62.9442	-12.6964	0.0000	0.0000	0.0000	0.0000;
	446	23	0.00156	0.006933	0.0121	432	432	432	1	0	1	0	0	-2.9363	-12.0488	2.9383	10.7853	0.0000	0.0000	0.0000	0.0000;
	605	23	0.006376	0.028733	0.0506	432	432	432	1	0	1	0	0	32.0348	-20.5513	-31.9528	15.6108	0.0000	0.0000	0.0000	0.0000;
	987	23	0.00158	0.010627	0.0192	481	481	481	1	0	1	0	0	-66.4907	9.4359	66.5587	-10.9997	0.0000	0.0000	0.0000	0.0000;
	845	25	0.001086	0.003536	0.3766	506	506	506	1	0	1	0	0	32.0133	-40.0628	-32.0000	-2.3000	0.0000	0.0000	0.0000	0.0000;
	845	25	0.001086	0.003536	0.3766	506	506	506	1	0	1	0	0	32.0133	-40.0628	-32.0000	-2.3000	0.0000	0.0000	0.0000	0.0000;
	123	27	0.004741	0.020385	0.0334	0	0	0	1	0	1	0	0	-15.6070	19.9795	15.6395	-23.3182	0.0000	0.0000	0.0000	0.0000;
	1479	27	0.009027	0.048869	0.084	351	351	351	1	0	1	0	0	80.3924	23.2285	-79.7865	-28.8333	0.0000	0.0000	0.0000	0.0000;
	1500	27	0.003516	0.016257	0.0273	311	311	311	1	0	1	0	0	7.4565	-8.2661	-7.4530	5.4516	0.0000	0.0000	0.0000	0.0000;
	289	28	0.000514	0.003417	0.0278	452	452	452	1	0	1	0	0	-40.9843	2.0043	40.9923	-4.9591	0.0000	0.0000	0.0000	0.0000;
	307	28	0.001084	0.007198	0.0132	448	448	448	1	0	1	0	0	101.4900	-10.4815	-101.3859	9.7434	0.0000	0.0000	0.0000	0.0000;
	1451	28	0.000523	0.002436	0.0167	348	348	348	1	0	1	0	0	-65.4283	11.2730	65.4497	-12.9805	0.0000	0.0000	0.0000	0.0000;
	289	28	0.000514	0.003457	0.0203	356	356	356	1	0	1	0	0	-40.5262	2.3013	40.5341	-4.4452	0.0000	0.0000	0.0000	0.0000;
	307	28	0.001086	0.007249	0.0132	540	540	540	1	0	1	0	0	100.7949	-10.3366	-100.6921	9.5939	0.0000	0.0000	0.0000	0.0000;
	1450	28	0.000553	0.002469	0.0157	405	405	405	1	0	1	0	0	-50.1136	11.7399	50.1272	-13.3781	0.0000	0.0000	0.0000	0.0000;
	307	28	0.001086	0.007269	0.0132	540	540	540	1	0	1	0	0	100.5275	-10.2702	-100.4253	9.5257	0.0000	0.0000	0.0000	0.0000;
	842	31	0.001837	0.011694	0.0759	467	467	467	1	0	1	0	0	-58.1555	-62.8273	58.2710	55.2563	0.0000	0.0000	0.0000	0.0000;
	960	31	0.001067	0.007131	0.0132	413	413	413	1	0	1	0	0	-4.8000	-0.9000	4.8002	-0.5535	0.0000	0.0000	0.0000	0.0000;
	1269	31	0.001284	0.008593	0.0152	541	541	541	1	0	1	0	0	-8.6186	-13.3511	8.6213	11.6954	0.0000	0.0000	0.0000	0.0000;
	1270	31	0.001284	0.008593	0.0162	541	541	541	1	0	1	0	0	46.5571	32.0215	-46.5194	-33.5609	0.0000	0.0000	0.0000	0.0000;
	1270	31	0.001284	0.008533	0.0162	541	541	541	1	0	1	0	0	46.9112	32.1997	-46.8731	-33.7374	0.0000	0.0000	0.0000	0.0000;
	212	33	0.000494	0.000928	0.0699	0	0	0	1	0	1	0	0	-14.6000	0.7000	14.6011	-8.3075	0.0000	0.0000	0.0000	0.0000;
	326	33	0.000184	0.00159	0.1661	422	422	422	1	0	1	0	0	-251.1607	30.2576	251.2699	-47.3991	0.0000	0.0000	0.0000	0.0000;
	1153	33	0.000198	0.001711	0.1711	385	385	385	1	0	1	0	0	172.6767	-34.7568	-172.6213	16.6105	0.0000	0.0000	0.0000	0.0000;
	1170	33	0.000751	0.003358	0.1534	385	385	385	1	0	1	0	0	162.3450	-52.3188	-162.1497	36.4961	0.0000	0.0000	0.0000	0.0000;
	343	34	0.000178	0.001047	0.1499	452	452	452	1	0	1	0	0	99.3644	-38.8430	-99.3468	22.6119	0.0000	0.0000	0.0000	0.0000;
	955	34	0.000316	0.002232	0.2774	452	452	452	1	0	1	0	0	-48.7387	5.1277	48.7468	-35.3119	0.0000	0.0000	0.0000	0.0000;
	1257	35	0.037227	0.106836	0.0328	0	0	0	1	0	1	0	0	46.3469	-4.3206	-45.6152	2.8695	0.0000	0.0000	0.0000	0.0000;
	1439	35	0.006089	0.020756	0.0067	0	0	0	1	0	1	0	0	-28.5673	4.4166	28.6152	-4.9695	0.0000	0.0000	0.0000	0.0000;
	846	36	0.000729	0.005118	0.0933	389	389	389	1	0	1	0	0	-36.7331	10.3402	36.7434	-20.7949	0.0000	0.0000	0.0000	0.0000;
	846	36	0.000755	0.005235	0.0909	419	419	419	1	0	1	0	0	-35.8764	10.1857	35.8866	-20.3713	0.0000	0.0000	0.0000	0.0000;
	228	37	0.001787	0.01946	0.4214	1579	1579	1579	1	0	1	0	0	731.2564	-100.5633	-722.6308	146.8235	0.0000	0.0000	0.0000	0.0000;
	477	38	0.001719	0.00877	0.0157	321	321	321	1	0	1	0	0	23.6406	19.9748	-23.6246	-21.5638	0.0000	0.0000	0.0000	0.0000;
	1179	38	0.009165	0.04318	0.077	321	321	321	1	0	1	0	0	65.7665	-18.2929	-65.3754	11.9638	0.0000	0.0000	0.0000	0.0000;
	134	39	0.004879	0.032454	0.0602	487	487	487	1	0	1	0	0	-77.3000	10.6000	77.5813	-15.1648	0.0000	0.0000	0.0000	0.0000;
	195	39	0.006341	0.042746	0.0785	418	418	418	1	0	1	0	0	-83.6000	8.6000	84.0248	-14.1222	0.0000	0.0000	0.0000	0.0000;
	208	39	0.006914	0.031249	0.0547	327	327	327	1	0	1	0	0	-74.5209	-1.6754	74.8837	-2.5030	0.0000	0.0000	0.0000	0.0000;
	296	40	0.000582	0.007652	0.2643	2487	2487	2487	1	0	1	0	0	-457.8046	32.5996	458.9466	-46.1045	0.0000	0.0000	0.0000	0.0000;
	766	40	0.001648	0.021634	0.748	2487	2487	2487	1	0	1	0	0	-282.2041	-135.3876	283.6386	75.6062	0.0000	0.0000	0.0000	0.0000;
	950	40	0.000838	0.014301	0.5198	2487	2487	2487	1	0	1	0	0	830.4805	5.8680	-825.1659	28.4801	0.0000	0.0000	0.0000	0.0000;
	1282	40	0.001163	0.015312	0.5285	2487	2487	2487	1	0	1	0	0	132.1272	-6.9199	-131.9356	-47.8123	0.0000	0.0000	0.0000	0.0000;
	296	40	0.000575	0.007576	0.2614	2487	2487	2487	1	0	1	0	0	-462.4104	33.1528	463.5613	-46.1938	0.0000	0.0000	0.0000	0.0000;
	766	40	0.001646	0.021633	0.7479	2487	2487	2487	1	0	1	0	0	-282.2105	-135.4126	283.6434	75.6428	0.0000	0.0000	0.0000	0.0000;
	950	40	0.000838	0.014287	0.5198	2487	2487	2487	1	0	1	0	0	831.2934	5.8539	-825.9685	28.5826	0.0000	0.0000	0.0000	0.0000;
	1281	40	0.00117	0.015339	0.5285	2487	2487	2487	1	0	1	0	0	145.0559	-7.4035	-144.8248	-46.8251	0.0000	0.0000	0.0000	0.0000;
	1282	40	0.001821	0.017874	0.4318	1382	1382	1382	1	0	1	0	0	113.3726	-7.7418	-113.1533	-36.8859	0.0000	0.0000	0.0000	0.0000;
	558	41	0.000672	0.003477	0.0365	254	254	254	1	0	1	0	0	64.6274	13.4859	-64.6000	-17.3000	0.0000	0.0000	0.0000	0.0000;
	1420	42	0.000632	0.004188	0.0081	471	471	471	1	0	1	0	0	13.4011	2.4460	-13.4000	-3.3000	0.0000	0.0000	0.0000	0.0000;
	1420	43	0.000612	0.004148	0.0071	471	471	471	1	0	1	0	0	33.3065	3.9891	-33.3000	-4.7000	0.0000	0.0000	0.0000	0.0000;
	1040	44	0.000672	0.004405	0.0081	541	541	541	1	0	1	0	0	83.9090	-1.3810	-83.8667	0.7514	0.0000	0.0000	0.0000	0.0000;
	1521	44	0.000968	0.004602	0.0081	304	304	304	1	0	1	0	0	44.4877	-1.4736	-44.4706	0.6485	0.0000	0.0000	0.0000	0.0000;
	1040	44	0.000632	0.004444	0.0081	440	440	440	1	0	1	0	0	83.3018	-0.5313	-83.2627	-0.0999	0.0000	0.0000	0.0000	0.0000;
	1524	45	0.001975	0.013215	0.0243	541	541	541	1	0	1	0	0	27.2873	1.5020	-27.2739	-4.0890	0.0000	0.0000	0.0000	0.0000;
	1525	45	0.001956	0.013037	0.0243	0	0	0	1	0	1	0	0	64.9046	-15.3399	-64.8261	13.1890	0.0000	0.0000	0.0000	0.0000;
	1321	46	0.002933	0.010267	0.0032	0	0	0	1	0	1	0	0	27.4972	1.8971	-27.4778	-2.1966	0.0000	0.0000	0.0000	0.0000;
	1429	46	0.0028	0.007511	0.0022	0	0	0	1	0	1	0	0	-57.3971	1.7677	57.4778	-1.8034	0.0000	0.0000	0.0000	0.0000;
	49	48	2e-05	0.000198	0.0121	261	261	261	1	0	1	0	0	0.0000	-1.2788	0.0000	-0.0000	0.0000	0.0000	0.0000	0.0000;
	49	47	2e-05	0.000198	0.0142	261	261	261	1	0	1	0	0	0.0000	-1.5007	0.0000	0.0000	0.0000	0.0000	0.0000	0.0000;
	298	49	0.002037	0.010904	0.0187	352	352	352	1	0	1	0	0	-28.4017	1.0531	28.4173	-2.9450	0.0000	0.0000	0.0000	0.0000;
	318	49	0.000415	0.002015	0.1266	428	428	428	1	0	1	0	0	-63.7426	14.4687	63.7603	-27.7645	0.0000	0.0000	0.0000	0.0000;
	370	49	0.000395	0.00156	0.1893	426	426	426	1	0	1	0	0	-176.1305	16.2174	176.2491	-35.7499	0.0000	0.0000	0.0000	0.0000;
	608	49	4e-05	0.000178	0.0152	0	0	0	1	0	1	0	0	144.0000	-32.5651	-143.9918	30.9953	0.0000	0.0000	0.0000	0.0000;
	836	49	0.001323	0.012444	0.0678	935	935	935	1	0	1	0	0	48.4778	54.8834	-48.4066	-61.4323	0.0000	0.0000	0.0000	0.0000;
	1227	49	0.000454	0.002133	0.2511	268	268	268	1	0	1	0	0	-54.5000	-1.4000	54.5134	-25.0749	0.0000	0.0000	0.0000	0.0000;
	1381	49	0.000119	0.000691	0.1002	387	387	387	1	0	1	0	0	-162.4799	17.2743	162.5102	-27.6876	0.0000	0.0000	0.0000	0.0000;
	1411	49	0.00083	0.005175	0.0203	323	323	323	1	0	1	0	0	-63.0075	9.6653	63.0396	-11.6107	0.0000	0.0000	0.0000	0.0000;
	836	49	0.001314	0.012115	0.0673	943	943	943	1	0	1	0	0	49.9103	56.3800	-49.8357	-62.8579	0.0000	0.0000	0.0000	0.0000;
	1379	49	5.9e-05	0.000217	0.0496	323	323	323	1	0	1	0	0	120.0000	-24.5050	-119.9917	19.2935	0.0000	0.0000	0.0000	0.0000;
	1378	49	5.9e-05	0.000217	0.0466	323	323	323	1	0	1	0	0	250.0000	-43.3588	-249.9642	38.5653	0.0000	0.0000	0.0000	0.0000;
	1169	50	0.000158	0.000948	0.002	348	348	348	1	0	1	0	0	10.4002	6.3852	-10.4000	-6.6000	0.0000	0.0000	0.0000	0.0000;
	704	51	0.001521	0.007076	0.0118	302	302	302	1	0	1	0	0	-0.0000	0.0000	0.0000	-1.2749	0.0000	0.0000	0.0000	0.0000;
	1265	51	0.002469	0.011457	0.0203	315	315	315	1	0	1	0	0	-26.9745	18.6687	27.0000	-20.7468	0.0000	0.0000	0.0000	0.0000;
	404	52	0.001442	0.009699	0.0172	566	566	566	1	0	1	0	0	39.6508	18.7391	-39.6240	-20.3644	0.0000	0.0000	0.0000	0.0000;
	427	52	0.001422	0.009541	0.0172	566	566	566	1	0	1	0	0	29.0878	-5.5868	-29.0760	3.8644	0.0000	0.0000	0.0000	0.0000;
	459	53	0.004681	0.028227	0.0516	440	440	440	1	0	1	0	0	-45.9410	6.3437	46.0402	-11.0830	0.0000	0.0000	0.0000	0.0000;
	765	53	0.001185	0.008	0.0152	575	575	575	1	0	1	0	0	9.5101	-15.3172	-9.5066	13.7705	0.0000	0.0000	0.0000	0.0000;
	1529	53	0.005333	0.02722	0.0491	440	440	440	1	0	1	0	0	-15.6083	28.2209	15.6689	-33.0256	0.0000	0.0000	0.0000	0.0000;
	766	54	0.000145	0.001911	0.0661	2487	2487	2487	1	0	1	0	0	-560.8456	-349.3212	561.4609	350.6171	0.0000	0.0000	0.0000	0.0000;
	1416	54	0.000253	0.003323	0.1148	2487	2487	2487	1	0	1	0	0	716.4674	349.0210	-714.9481	-341.1377	0.0000	0.0000	0.0000	0.0000;
	1101	56	0.000494	0.002252	0.004	406	406	406	1	0	1	0	0	28.2037	1.6874	-28.2000	-2.1000	0.0000	0.0000	0.0000	0.0000;
	1101	55	0.000494	0.002252	0.004	406	406	406	1	0	1	0	0	28.9043	10.1905	-28.9000	-10.6000	0.0000	0.0000	0.0000	0.0000;
	320	1827	0.009857	0.04478	0.077	405	405	405	1	0	1	0	0	95.1804	-22.2823	-94.3348	17.7013	0.0000	0.0000	0.0000	0.0000;
	813	1827	0.017106	0.078321	0.1387	362	362	362	1	0	1	0	0	-51.4123	6.2749	51.8549	-19.4310	0.0000	0.0000	0.0000	0.0000;
	1287	1827	0.010272	0.048691	0.0866	354	354	354	1	0	1	0	0	67.5785	-21.9083	-67.1201	14.6297	0.0000	0.0000	0.0000	0.0000;
	461	57	0.012978	0.059338	0.1002	409	409	409	1	0	1	0	0	50.7893	-24.5482	-50.4438	15.0049	0.0000	0.0000	0.0000	0.0000;
	827	57	0.01197	0.056632	0.0942	262	262	262	1	0	1	0	0	-23.0862	-6.0965	23.1438	-4.1049	0.0000	0.0000	0.0000	0.0000;
	1429	58	0.000578	0.001156	0.0004	0	0	0	1	0	1	0	0	0.0000	-0.0458	0.0000	0.0000	0.0000	0.0000	0.0000	0.0000;
	1090	60	0.000316	0.001679	0.0192	0	0	0	1	0	1	0	0	36.5065	28.7573	-36.5000	-30.8000	0.0000	0.0000	0.0000	0.0000;
	1090	59	0.000316	0.001679	0.0192	0	0	0	1	0	1	0	0	36.8050	18.2493	-36.8000	-20.3000	0.0000	0.0000	0.0000	0.0000;
	713	61	0.000277	0.000573	0.0334	0	0	0	1	0	1	0	0	-134.9534	-0.3985	135.0000	-3.1226	0.0000	0.0000	0.0000	0.0000;
	1032	62	0.001055	0.004836	0.0081	432	432	432	1	0	1	0	0	8.4007	-1.1592	-8.4000	0.3000	0.0000	0.0000	0.0000	0.0000;
	998	63	0.002114	0.008553	0.0152	346	346	346	1	0	1	0	0	13.2041	-8.0324	-13.2000	6.3000	0.0000	0.0000	0.0000	0.0000;
	342	65	0.000158	0.000652	0.084	0	0	0	1	0	1	0	0	22.7007	-6.7725	-22.7000	-2.5000	0.0000	0.0000	0.0000	0.0000;
	894	64	0.000198	0.000731	0.0942	385	385	385	1	0	1	0	0	13.2003	-6.5208	-13.2000	-3.3000	0.0000	0.0000	0.0000	0.0000;
	1265	66	0.00324	0.012616	0.0225	302	302	302	1	0	1	0	0	11.4074	-12.1113	-11.4000	9.7000	0.0000	0.0000	0.0000	0.0000;
	1397	67	0.007522	0.029736	0.0496	303	303	303	1	0	1	0	0	48.4548	-21.6792	-48.2675	17.0139	0.0000	0.0000	0.0000	0.0000;
	1543	67	0.006809	0.03043	0.0521	380	380	380	1	0	1	0	0	-37.9668	10.4676	38.0675	-15.7139	0.0000	0.0000	0.0000	0.0000;
	404	69	0.002153	0.014736	0.0273	565	565	565	1	0	1	0	0	-38.0926	-10.3297	38.1239	7.6652	0.0000	0.0000	0.0000	0.0000;
	469	68	0.000581	0.003838	0.0071	507	507	507	1	0	1	0	0	-36.6000	-6.7000	36.6075	5.9919	0.0000	0.0000	0.0000	0.0000;
	791	68	0.001857	0.020306	0.0557	566	566	566	1	0	1	0	0	101.4366	-25.8538	-101.2475	21.9912	0.0000	0.0000	0.0000	0.0000;
	1348	69	0.002331	0.015526	0.0278	549	549	549	1	0	1	0	0	-28.7092	-12.9744	28.7304	10.1851	0.0000	0.0000	0.0000	0.0000;
	1480	68	0.001345	0.008968	0.0162	566	566	566	1	0	1	0	0	-131.8731	7.4065	132.0935	-7.6650	0.0000	0.0000	0.0000	0.0000;
	470	68	0.000573	0.003911	0.0071	415	415	415	1	0	1	0	0	-22.9000	-3.4000	22.9029	2.6616	0.0000	0.0000	0.0000	0.0000;
	640	68	0.001896	0.012701	0.0233	501	501	501	1	0	1	0	0	-129.9639	7.0703	130.2659	-7.5313	0.0000	0.0000	0.0000	0.0000;
	556	70	0.000602	0.006717	0.1357	1725	1725	1725	1	0	1	0	0	424.6436	-22.9014	-423.6327	19.6035	0.0000	0.0000	0.0000	0.0000;
	792	70	0.00063	0.007098	0.1588	1916	1916	1916	1	0	1	0	0	98.7956	7.5216	-98.7369	-23.9290	0.0000	0.0000	0.0000	0.0000;
	1421	70	0.000367	0.004631	0.1126	2275	2275	2275	1	0	1	0	0	94.4826	-57.4165	-94.4429	45.8579	0.0000	0.0000	0.0000	0.0000;
	792	70	0.000472	0.006201	0.2137	2487	2487	2487	1	0	1	0	0	112.9638	8.3298	-112.9061	-30.5408	0.0000	0.0000	0.0000	0.0000;
	1416	70	0.001504	0.019298	0.4577	2275	2275	2275	1	0	1	0	0	305.7688	-60.9139	-304.4294	29.1741	0.0000	0.0000	0.0000	0.0000;
	203	72	0.000158	0.001106	0.1357	461	461	461	1	0	1	0	0	66.3487	30.9032	-66.3400	-45.3817	0.0000	0.0000	0.0000	0.0000;
	375	71	0.000219	0.00193	0.1954	407	407	407	1	0	1	0	0	-108.9120	-3.1011	108.9363	-17.6614	0.0000	0.0000	0.0000	0.0000;
	403	71	0.000158	0.000909	0.1316	428	428	428	1	0	1	0	0	34.9894	-35.2324	-34.9864	21.1231	0.0000	0.0000	0.0000	0.0000;
	982	71	0.000411	0.00356	0.3564	416	416	416	1	0	1	0	0	113.1996	-31.5730	-113.1499	-6.2617	0.0000	0.0000	0.0000	0.0000;
	1104	72	0.000158	0.001264	0.1286	416	416	416	1	0	1	0	0	-47.0348	29.8542	47.0400	-43.5888	0.0000	0.0000	0.0000	0.0000;
	842	73	0.000198	0.001383	0.003	420	420	420	1	0	1	0	0	-63.9914	24.3989	64.0000	-24.6649	0.0000	0.0000	0.0000	0.0000;
...